# title
# Created by GaussView 5.0.9
#

#
#

@<TRIPOS>MOLECULE
Molecule Name
28 27
SMALL
NO_CHARGES


@<TRIPOS>ATOM
1 C1     0.3427    -1.5158    -0.7975 C
2 H2     0.5002    -1.2083    -1.8295 H
3 C3     1.4173    -1.8371    -0.0597 C
4 C4     1.3578    -2.2294     1.3928 C
5 H5     1.5057    -3.3106     1.5043 H
6 H6     2.1627    -1.7420     1.9522 H
7 H7     0.4168    -1.9589     1.8758 H
8 C8     2.7959    -1.8023    -0.6736 C
9 H9     3.3394    -2.7155    -0.3968 H
10 H10     2.7115    -1.7987    -1.7661 H
11 C11     3.6335    -0.5764    -0.2356 C
12 H12     4.6359    -0.6889    -0.6661 H
13 H13     3.7669    -0.5890     0.8505 H
14 C14    -1.0663    -1.5317    -0.3466 C
15 H15    -1.2490    -2.1261     0.5455 H
16 C16     3.0345     0.7212    -0.7003 C
17 H17     3.1317     0.9120    -1.7702 H
18 C18     2.3611     1.6205     0.0290 C
19 C19     2.0990     1.5042     1.5076 C
20 H20     2.6106     0.6612     1.9753 H
21 H21     2.4106     2.4194     2.0249 H
22 H22     1.0234     1.3847     1.6853 H
23 C23     1.7690     2.8520    -0.6059 C
24 H24     1.9648     2.8928    -1.6809 H
25 H25     0.6829     2.8724    -0.4539 H
26 H26     2.1756     3.7616    -0.1468 H
27 I27    -1.8123     0.4840     0.1974 I
28 H28    -1.7520    -1.8344    -1.1357 H
@<TRIPOS>BOND
1 1 2 1
2 1 3 2
3 1 14 1
4 3 4 1
5 3 8 1
6 4 5 1
7 4 6 1
8 4 7 1
9 8 9 1
10 8 10 1
11 8 11 1
12 11 12 1
13 11 13 1
14 11 16 1
15 14 15 1
16 14 27 1
17 14 28 1
18 16 17 1
19 16 18 2
20 18 19 1
21 18 23 1
22 19 20 1
23 19 21 1
24 19 22 1
25 23 24 1
26 23 25 1
27 23 26 1
