# title
# Created by GaussView 5.0.9
#

#
#

@<TRIPOS>MOLECULE
Molecule Name
28 27
SMALL
NO_CHARGES


@<TRIPOS>ATOM
1 C1     0.1080     0.9477    -0.7392 C
2 H2    -0.3214     0.2275    -1.4303 H
3 C3    -0.6948     1.5707     0.1384 C
4 C4    -0.2078     2.5396     1.1833 C
5 H5    -0.6606     3.5267     1.0316 H
6 H6    -0.5167     2.1980     2.1779 H
7 H7     0.8765     2.6584     1.2010 H
8 C8    -2.1870     1.3349     0.1810 C
9 H9    -2.4453     0.9787     1.1884 H
10 H10    -2.6909     2.3078     0.0858 H
11 C11    -2.7779     0.3604    -0.8446 C
12 H12    -2.3011    -0.6188    -0.7341 H
13 H13    -2.5427     0.7103    -1.8571 H
14 C14     1.5739     1.1240    -0.8612 C
15 H15     1.9558     2.0587    -0.4576 H
16 C16    -4.2727     0.2495    -0.7019 C
17 H17    -4.8454     1.0453    -1.1797 H
18 C18    -4.9550    -0.6857    -0.0275 C
19 C19    -4.3201    -1.8341     0.7137 C
20 H20    -3.2316    -1.8521     0.6351 H
21 H21    -4.5780    -1.7845     1.7786 H
22 H22    -4.7048    -2.7907     0.3398 H
23 C23    -6.4604    -0.6519     0.0465 C
24 H24    -6.8766     0.2028    -0.4933 H
25 H25    -6.8909    -1.5677    -0.3773 H
26 H26    -6.7978    -0.5960     1.0889 H
27 I27     2.7004    -0.4314     0.2383 I
28 H28     1.9210     0.9991    -1.8851 H
@<TRIPOS>BOND
1 1 2 1
2 1 3 2
3 1 14 1
4 3 4 1
5 3 8 1
6 4 5 1
7 4 6 1
8 4 7 1
9 8 9 1
10 8 10 1
11 8 11 1
12 11 12 1
13 11 13 1
14 11 16 1
15 14 15 1
16 14 27 1
17 14 28 1
18 16 17 1
19 16 18 2
20 18 19 1
21 18 23 1
22 19 20 1
23 19 21 1
24 19 22 1
25 23 24 1
26 23 25 1
27 23 26 1
