# title
# Created by GaussView 5.0.9
#

#
#

@<TRIPOS>MOLECULE
Molecule Name
28 27
SMALL
NO_CHARGES


@<TRIPOS>ATOM
1 C1    -0.0295     0.3349     0.6079 C
2 H2     0.3088    -0.6873     0.7535 H
3 C3     0.7816     1.2123    -0.0046 C
4 C4     0.3968     2.6362    -0.3117 C
5 H5     0.9993     3.3327     0.2835 H
6 H6     0.6010     2.8576    -1.3652 H
7 H7    -0.6578     2.8502    -0.1311 H
8 C8     2.1774     0.8515    -0.4562 C
9 H9     2.2366     1.0120    -1.5424 H
10 H10     2.8764     1.5830    -0.0254 H
11 C11     2.6856    -0.5587    -0.1334 C
12 H12     2.0143    -1.2998    -0.5818 H
13 H13     2.6485    -0.7215     0.9495 H
14 C14    -1.3905     0.6199     1.1187 C
15 H15    -1.5831     1.6693     1.3284 H
16 C16     4.0787    -0.7795    -0.6649 C
17 H17     4.1392    -1.1698    -1.6811 H
18 C18     5.2295    -0.5065    -0.0360 C
19 C19     5.3181     0.0647     1.3559 C
20 H20     4.3430     0.2133     1.8242 H
21 H21     5.9116    -0.5917     2.0038 H
22 H22     5.8314     1.0339     1.3348 H
23 C23     6.5616    -0.7437    -0.7003 C
24 H24     6.4479    -1.1793    -1.6966 H
25 H25     7.1190     0.1962    -0.7980 H
26 H26     7.1820    -1.4193    -0.0987 H
27 I27    -2.9781     0.0659    -0.3214 I
28 H28    -1.6356     0.0224     1.9948 H
@<TRIPOS>BOND
1 1 2 1
2 1 3 2
3 1 14 1
4 3 4 1
5 3 8 1
6 4 5 1
7 4 6 1
8 4 7 1
9 8 9 1
10 8 10 1
11 8 11 1
12 11 12 1
13 11 13 1
14 11 16 1
15 14 15 1
16 14 27 1
17 14 28 1
18 16 17 1
19 16 18 2
20 18 19 1
21 18 23 1
22 19 20 1
23 19 21 1
24 19 22 1
25 23 24 1
26 23 25 1
27 23 26 1
