# title
# Created by GaussView 5.0.9
#

#
#

@<TRIPOS>MOLECULE
Molecule Name
28 27
SMALL
NO_CHARGES


@<TRIPOS>ATOM
1 C1    -0.3540     0.2907     0.7640 C
2 H2    -0.1600     1.0226     1.5462 H
3 C3    -1.2012     0.6034    -0.2301 C
4 C4    -1.4630    -0.3373    -1.3825 C
5 H5    -2.0911    -1.1812    -1.0749 H
6 H6    -1.9908     0.1702    -2.1928 H
7 H7    -0.5276    -0.7413    -1.7851 H
8 C8    -1.9491     1.9162    -0.1949 C
9 H9    -1.3606     2.6586     0.3555 H
10 H10    -2.0768     2.2992    -1.2148 H
11 C11    -3.3341     1.7995     0.4840 C
12 H12    -3.7727     2.8037     0.5318 H
13 H13    -3.1821     1.4785     1.5192 H
14 C14     0.3490    -1.0037     0.8923 C
15 H15    -0.1195    -1.8165     0.3406 H
16 C16    -4.2921     0.8871    -0.2322 C
17 H17    -4.7652     1.3166    -1.1165 H
18 C18    -4.5984    -0.3801     0.0760 C
19 C19    -4.0069    -1.1459     1.2315 C
20 H20    -3.2797    -0.5695     1.8050 H
21 H21    -4.7953    -1.4881     1.9129 H
22 H22    -3.4993    -2.0466     0.8625 H
23 C23    -5.5686    -1.1725    -0.7621 C
24 H24    -5.9808    -0.5781    -1.5817 H
25 H25    -5.0786    -2.0555    -1.1921 H
26 H26    -6.4024    -1.5403    -0.1516 H
27 I27     2.4145    -0.9440     0.0897 I
28 H28     0.5003    -1.2980     1.9289 H
@<TRIPOS>BOND
1 1 2 1
2 1 3 2
3 1 14 1
4 3 4 1
5 3 8 1
6 4 5 1
7 4 6 1
8 4 7 1
9 8 9 1
10 8 10 1
11 8 11 1
12 11 12 1
13 11 13 1
14 11 16 1
15 14 15 1
16 14 27 1
17 14 28 1
18 16 17 1
19 16 18 2
20 18 19 1
21 18 23 1
22 19 20 1
23 19 21 1
24 19 22 1
25 23 24 1
26 23 25 1
27 23 26 1
