# Molecule Name
# Created by GaussView 5.0.9
#

#
#

@<TRIPOS>MOLECULE
Molecule Name
28 27
SMALL
NO_CHARGES


@<TRIPOS>ATOM
1 C1    -0.2525     1.5703    -0.2638 C
2 H2    -0.3609     1.7337    -1.3354 H
3 C3     0.9773     1.6403     0.2708 C
4 C4     1.2906     1.3814     1.7179 C
5 H5     2.0753     0.6202     1.7896 H
6 H6     1.6851     2.2908     2.1872 H
7 H7     0.4322     1.0365     2.2973 H
8 C8     2.1669     1.9308    -0.6207 C
9 H9     1.9108     2.7147    -1.3422 H
10 H10     2.9988     2.3065    -0.0134 H
11 C11     2.6427     0.6817    -1.4002 C
12 H12     3.5092     0.9634    -2.0079 H
13 H13     1.8501     0.3938    -2.1003 H
14 C14    -1.5011     1.2447     0.4599 C
15 H15    -2.3814     1.6901     0.0014 H
16 C16     2.9533    -0.4956    -0.5146 C
17 H17     2.0908    -1.1003    -0.2324 H
18 C18     4.1454    -0.8450    -0.0130 C
19 C19     5.4311    -0.1034    -0.2722 C
20 H20     5.3157     0.7335    -0.9637 H
21 H21     5.8374     0.2919     0.6673 H
22 H22     6.1892    -0.7818    -0.6818 H
23 C23     4.2853    -2.0408     0.8944 C
24 H24     3.3269    -2.5400     1.0598 H
25 H25     4.9852    -2.7724     0.4718 H
26 H26     4.6915    -1.7436     1.8696 H
27 I27    -1.9544    -0.9270     0.4131 I
28 H28    -1.4803     1.4797     1.5216 H
@<TRIPOS>BOND
1 1 2 1
2 1 3 2
3 1 14 1
4 3 4 1
5 3 8 1
6 4 5 1
7 4 6 1
8 4 7 1
9 8 9 1
10 8 10 1
11 8 11 1
12 11 12 1
13 11 13 1
14 11 16 1
15 14 15 1
16 14 27 1
17 14 28 1
18 16 17 1
19 16 18 2
20 18 19 1
21 18 23 1
22 19 20 1
23 19 21 1
24 19 22 1
25 23 24 1
26 23 25 1
27 23 26 1
