# title
# Created by GaussView 5.0.9
#

#
#

@<TRIPOS>MOLECULE
Molecule Name
28 27
SMALL
NO_CHARGES


@<TRIPOS>ATOM
1 C1     0.0117    -0.3455     0.7593 C
2 H2    -0.1311    -1.3265     1.2107 H
3 C3     1.0535    -0.1714    -0.0707 C
4 C4     1.3187     1.0909    -0.8432 C
5 H5     2.3591     1.4069    -0.7158 H
6 H6     1.1711     0.8955    -1.9124 H
7 H7     0.6618     1.9183    -0.5689 H
8 C8     2.0390    -1.2997    -0.2882 C
9 H9     1.5113    -2.2595    -0.2571 H
10 H10     2.4852    -1.2068    -1.2858 H
11 C11     3.1767    -1.3372     0.7593 C
12 H12     3.8101    -2.2044     0.5420 H
13 H13     2.7288    -1.5171     1.7430 H
14 C14    -0.9975     0.6746     1.1210 C
15 H15    -0.6480     1.7010     1.0342 H
16 C16     3.9988    -0.0758     0.8196 C
17 H17     3.6481     0.6815     1.5210 H
18 C18     5.0778     0.2171     0.0813 C
19 C19     5.6645    -0.7022    -0.9583 C
20 H20     5.1539    -1.6652    -1.0197 H
21 H21     5.6131    -0.2326    -1.9486 H
22 H22     6.7253    -0.8899    -0.7536 H
23 C23     5.7885     1.5384     0.2244 C
24 H24     5.3295     2.1676     0.9917 H
25 H25     6.8423     1.3877     0.4888 H
26 H26     5.7773     2.0897    -0.7244 H
27 I27    -2.7824     0.6201    -0.1919 I
28 H28    -1.4175     0.5126     2.1117 H
@<TRIPOS>BOND
1 1 2 1
2 1 3 2
3 1 14 1
4 3 4 1
5 3 8 1
6 4 5 1
7 4 6 1
8 4 7 1
9 8 9 1
10 8 10 1
11 8 11 1
12 11 12 1
13 11 13 1
14 11 16 1
15 14 15 1
16 14 27 1
17 14 28 1
18 16 17 1
19 16 18 2
20 18 19 1
21 18 23 1
22 19 20 1
23 19 21 1
24 19 22 1
25 23 24 1
26 23 25 1
27 23 26 1
