# title
# Created by GaussView 5.0.9
#

#
#

@<TRIPOS>MOLECULE
Molecule Name
28 27
SMALL
NO_CHARGES


@<TRIPOS>ATOM
1 C1    -0.5778     1.2154     0.8972 C
2 H2    -1.2053     0.5351     1.4637 H
3 C3    -1.1597     2.0744     0.0467 C
4 C4    -0.4091     3.0338    -0.8366 C
5 H5    -0.5198     2.7336    -1.8855 H
6 H6    -0.8317     4.0416    -0.7478 H
7 H7     0.6584     3.0947    -0.6192 H
8 C8    -2.6644     2.1466    -0.1155 C
9 H9    -3.0295     3.0309     0.4257 H
10 H10    -2.8747     2.3490    -1.1752 H
11 C11    -3.4755     0.9117     0.3101 C
12 H12    -4.5372     1.1563     0.1767 H
13 H13    -3.3446     0.7201     1.3792 H
14 C14     0.8723     1.0399     1.1224 C
15 H15     1.1119     0.8189     2.1611 H
16 C16    -3.1372    -0.2947    -0.5236 C
17 H17    -3.2527    -0.1375    -1.5977 H
18 C18    -2.6830    -1.4899    -0.1266 C
19 C19    -2.4417    -1.8921     1.3050 C
20 H20    -2.7780    -1.1484     2.0305 H
21 H21    -2.9607    -2.8317     1.5285 H
22 H22    -1.3714    -2.0736     1.4677 H
23 C23    -2.3236    -2.5545    -1.1310 C
24 H24    -2.5243    -2.2333    -2.1565 H
25 H25    -1.2566    -2.7982    -1.0524 H
26 H26    -2.8803    -3.4807    -0.9431 H
27 I27     1.6445    -0.7424     0.0510 I
28 H28     1.4984     1.8528     0.7630 H
@<TRIPOS>BOND
1 1 2 1
2 1 3 2
3 1 14 1
4 3 4 1
5 3 8 1
6 4 5 1
7 4 6 1
8 4 7 1
9 8 9 1
10 8 10 1
11 8 11 1
12 11 12 1
13 11 13 1
14 11 16 1
15 14 15 1
16 14 27 1
17 14 28 1
18 16 17 1
19 16 18 2
20 18 19 1
21 18 23 1
22 19 20 1
23 19 21 1
24 19 22 1
25 23 24 1
26 23 25 1
27 23 26 1
