# title
# Created by GaussView 5.0.9
#

#
#

@<TRIPOS>MOLECULE
Molecule Name
28 27
SMALL
NO_CHARGES


@<TRIPOS>ATOM
1 C1    -0.5325     0.4839     0.2929 C
2 H2    -1.0775    -0.3203    -0.1907 H
3 C3    -0.9329     1.7511     0.1090 C
4 C4    -0.2340     2.9459     0.7045 C
5 H5    -0.1127     3.7262    -0.0550 H
6 H6    -0.8368     3.3791     1.5121 H
7 H7     0.7573     2.7186     1.1005 H
8 C8    -2.1316     2.1151    -0.7384 C
9 H9    -2.7497     2.8194    -0.1620 H
10 H10    -1.7634     2.6931    -1.5977 H
11 C11    -3.0230     0.9767    -1.2519 C
12 H12    -2.4249     0.2723    -1.8378 H
13 H13    -3.7390     1.4196    -1.9569 H
14 C14     0.6091     0.0466     1.1279 C
15 H15     0.4255    -0.9142     1.6053 H
16 C16    -3.7933     0.2889    -0.1577 C
17 H17    -4.3492     0.9688     0.4909 H
18 C18    -3.8823    -1.0199     0.1098 C
19 C19    -3.1843    -2.1085    -0.6639 C
20 H20    -2.6031    -1.7393    -1.5109 H
21 H21    -2.5085    -2.6703    -0.0064 H
22 H22    -3.9148    -2.8289    -1.0511 H
23 C23    -4.7130    -1.5192     1.2652 C
24 H24    -5.1995    -0.7001     1.8015 H
25 H25    -5.4896    -2.2119     0.9180 H
26 H26    -4.0906    -2.0744     1.9781 H
27 I27     2.4332    -0.3375    -0.0668 I
28 H28     0.9302     0.7693     1.8740 H
@<TRIPOS>BOND
1 1 2 1
2 1 3 2
3 1 14 1
4 3 4 1
5 3 8 1
6 4 5 1
7 4 6 1
8 4 7 1
9 8 9 1
10 8 10 1
11 8 11 1
12 11 12 1
13 11 13 1
14 11 16 1
15 14 15 1
16 14 27 1
17 14 28 1
18 16 17 1
19 16 18 2
20 18 19 1
21 18 23 1
22 19 20 1
23 19 21 1
24 19 22 1
25 23 24 1
26 23 25 1
27 23 26 1
