# title
# Created by GaussView 5.0.9
#

#
#

@<TRIPOS>MOLECULE
Molecule Name
28 27
SMALL
NO_CHARGES


@<TRIPOS>ATOM
1 C1    -0.0174     1.3441    -0.7206 C
2 H2    -0.3932     0.8549    -1.6149 H
3 C3    -0.8849     1.9519     0.1037 C
4 C4    -0.4935     2.5986     1.4046 C
5 H5    -0.9735     3.5786     1.5063 H
6 H6    -0.8472     1.9803     2.2386 H
7 H7     0.5824     2.7320     1.5271 H
8 C8    -2.3686     2.0289    -0.1864 C
9 H9    -2.9003     1.8811     0.7634 H
10 H10    -2.5985     3.0589    -0.4966 H
11 C11    -2.9419     1.0399    -1.2129 C
12 H12    -2.4555     1.1844    -2.1845 H
13 H13    -3.9946     1.2959    -1.3725 H
14 C14     1.4430     1.2201    -0.5159 C
15 H15     1.8804     1.9795     0.1280 H
16 C16    -2.8077    -0.4015    -0.7869 C
17 H17    -1.9030    -0.9158    -1.1068 H
18 C18    -3.6634    -1.0888    -0.0190 C
19 C19    -4.9441    -0.5259     0.5417 C
20 H20    -5.1161     0.5166     0.2657 H
21 H21    -5.8046    -1.1150     0.2014 H
22 H22    -4.9358    -0.5853     1.6370 H
23 C23    -3.3905    -2.5218     0.3599 C
24 H24    -2.4560    -2.8861    -0.0744 H
25 H25    -3.3247    -2.6306     1.4496 H
26 H26    -4.2046    -3.1763     0.0241 H
27 I27     1.9802    -0.6864     0.4802 I
28 H28     1.9931     1.1708    -1.4534 H
@<TRIPOS>BOND
1 1 2 1
2 1 3 2
3 1 14 1
4 3 4 1
5 3 8 1
6 4 5 1
7 4 6 1
8 4 7 1
9 8 9 1
10 8 10 1
11 8 11 1
12 11 12 1
13 11 13 1
14 11 16 1
15 14 15 1
16 14 27 1
17 14 28 1
18 16 17 1
19 16 18 2
20 18 19 1
21 18 23 1
22 19 20 1
23 19 21 1
24 19 22 1
25 23 24 1
26 23 25 1
27 23 26 1
