# title
# Created by GaussView 5.0.9
#

#
#

@<TRIPOS>MOLECULE
Molecule Name
28 27
SMALL
NO_CHARGES


@<TRIPOS>ATOM
1 C1    -0.3082    -0.0088     0.2798 C
2 H2    -0.5818    -0.8136    -0.3970 H
3 C3    -0.9834     1.1495     0.2269 C
4 C4    -0.6436     2.3496     1.0711 C
5 H5    -0.6420     3.2532     0.4511 H
6 H6    -1.4051     2.4977     1.8468 H
7 H7     0.3332     2.2806     1.5529 H
8 C8    -2.1375     1.3844    -0.7218 C
9 H9    -2.9203     1.9249    -0.1716 H
10 H10    -1.7876     2.0817    -1.4974 H
11 C11    -2.7772     0.1588    -1.3909 C
12 H12    -2.0192    -0.3935    -1.9579 H
13 H13    -3.4921     0.5224    -2.1366 H
14 C14     0.8187    -0.3133     1.1911 C
15 H15     0.8749    -1.3712     1.4402 H
16 C16    -3.4618    -0.7702    -0.4187 C
17 H17    -2.8633    -1.5962    -0.0377 H
18 C18    -4.7144    -0.6558     0.0427 C
19 C19    -5.6698     0.4391    -0.3574 C
20 H20    -5.2517     1.1332    -1.0893 H
21 H21    -6.5874     0.0117    -0.7798 H
22 H22    -5.9698     1.0213     0.5227 H
23 C23    -5.2762    -1.6427     1.0339 C
24 H24    -4.5474    -2.4133     1.2982 H
25 H25    -5.5873    -1.1349     1.9554 H
26 H26    -6.1677    -2.1368     0.6282 H
27 I27     2.7939     0.0871     0.2716 I
28 H28     0.8316     0.2776     2.1041 H
@<TRIPOS>BOND
1 1 2 1
2 1 3 2
3 1 14 1
4 3 4 1
5 3 8 1
6 4 5 1
7 4 6 1
8 4 7 1
9 8 9 1
10 8 10 1
11 8 11 1
12 11 12 1
13 11 13 1
14 11 16 1
15 14 15 1
16 14 27 1
17 14 28 1
18 16 17 1
19 16 18 2
20 18 19 1
21 18 23 1
22 19 20 1
23 19 21 1
24 19 22 1
25 23 24 1
26 23 25 1
27 23 26 1
