# title
# Created by GaussView 5.0.9
#

#
#

@<TRIPOS>MOLECULE
Molecule Name
28 27
SMALL
NO_CHARGES


@<TRIPOS>ATOM
1 C1     0.2939     1.2324     1.0914 C
2 H2     0.8104     0.6937     1.8835 H
3 C3     1.0241     1.9937     0.2608 C
4 C4     0.4603     2.7054    -0.9389 C
5 H5     0.9463     3.6767    -1.0792 H
6 H6     0.6453     2.1167    -1.8463 H
7 H7    -0.6170     2.8697    -0.8759 H
8 C8     2.5207     2.0691     0.4259 C
9 H9     2.8437     3.1185     0.4431 H
10 H10     2.8059     1.6212     1.3838 H
11 C11     3.2708     1.3295    -0.7092 C
12 H12     4.3448     1.3751    -0.4989 H
13 H13     3.1247     1.8675    -1.6527 H
14 C14    -1.1610     0.9848     0.9960 C
15 H15    -1.7231     1.7713     0.4969 H
16 C16     2.7989    -0.0930    -0.8702 C
17 H17     2.0004    -0.2485    -1.5953 H
18 C18     3.1994    -1.1555    -0.1608 C
19 C19     4.2492    -1.1012     0.9187 C
20 H20     4.7250    -0.1223     1.0091 H
21 H21     3.8030    -1.3478     1.8905 H
22 H22     5.0329    -1.8458     0.7343 H
23 C23     2.5841    -2.5137    -0.3759 C
24 H24     1.8125    -2.4903    -1.1494 H
25 H25     3.3459    -3.2480    -0.6657 H
26 H26     2.1224    -2.8799     0.5494 H
27 I27    -1.6095    -0.8231    -0.2070 I
28 H28    -1.6160     0.7596     1.9583 H
@<TRIPOS>BOND
1 1 2 1
2 1 3 2
3 1 14 1
4 3 4 1
5 3 8 1
6 4 5 1
7 4 6 1
8 4 7 1
9 8 9 1
10 8 10 1
11 8 11 1
12 11 12 1
13 11 13 1
14 11 16 1
15 14 15 1
16 14 27 1
17 14 28 1
18 16 17 1
19 16 18 2
20 18 19 1
21 18 23 1
22 19 20 1
23 19 21 1
24 19 22 1
25 23 24 1
26 23 25 1
27 23 26 1
