# title
# Created by GaussView 5.0.9
#

#
#

@<TRIPOS>MOLECULE
Molecule Name
28 27
SMALL
NO_CHARGES


@<TRIPOS>ATOM
1 C1    -0.2056    -0.0396    -0.0380 C
2 H2    -0.4106    -0.7531    -0.8335 H
3 C3    -0.9249     1.0927     0.0094 C
4 C4    -0.7097     2.1750     1.0352 C
5 H5    -0.8177     3.1615     0.5718 H
6 H6    -1.4607     2.1139     1.8326 H
7 H7     0.2793     2.1322     1.4960 H
8 C8    -2.0298     1.3417    -0.9869 C
9 H9    -1.7980     2.2567    -1.5500 H
10 H10    -2.0720     0.5173    -1.7065 H
11 C11    -3.4202     1.5082    -0.3347 C
12 H12    -4.1488     1.7179    -1.1231 H
13 H13    -3.4121     2.3950     0.3114 H
14 C14     0.8651    -0.4253     0.9089 C
15 H15     0.9348    -1.5033     1.0398 H
16 C16    -3.8254     0.3101     0.4796 C
17 H17    -3.3589     0.2365     1.4626 H
18 C18    -4.6511    -0.6808     0.1187 C
19 C19    -5.3593    -0.7648    -1.2089 C
20 H20    -5.0828     0.0344    -1.8990 H
21 H21    -5.1353    -1.7208    -1.6971 H
22 H22    -6.4465    -0.7309    -1.0663 H
23 C23    -4.9413    -1.8303     1.0504 C
24 H24    -4.4303    -1.7163     2.0101 H
25 H25    -6.0181    -1.9142     1.2427 H
26 H26    -4.6252    -2.7811     0.6037 H
27 I27     2.8874     0.1202     0.1848 I
28 H28     0.7981     0.0575     1.8814 H
@<TRIPOS>BOND
1 1 2 1
2 1 3 2
3 1 14 1
4 3 4 1
5 3 8 1
6 4 5 1
7 4 6 1
8 4 7 1
9 8 9 1
10 8 10 1
11 8 11 1
12 11 12 1
13 11 13 1
14 11 16 1
15 14 15 1
16 14 27 1
17 14 28 1
18 16 17 1
19 16 18 2
20 18 19 1
21 18 23 1
22 19 20 1
23 19 21 1
24 19 22 1
25 23 24 1
26 23 25 1
27 23 26 1
