# title
# Created by GaussView 5.0.9
#

#
#

@<TRIPOS>MOLECULE
Molecule Name
28 27
SMALL
NO_CHARGES


@<TRIPOS>ATOM
1 C1     0.2597    -0.2429     0.7798 C
2 H2     0.1928    -1.3230     0.8962 H
3 C3    -0.8004     0.4185     0.2886 C
4 C4    -0.8091     1.9052     0.0358 C
5 H5    -1.4119     2.1350    -0.8491 H
6 H6    -1.2576     2.4449     0.8787 H
7 H7     0.1913     2.3109    -0.1321 H
8 C8    -2.0798    -0.3118    -0.0315 C
9 H9    -2.3363    -0.1479    -1.0871 H
10 H10    -1.9372    -1.3906     0.0971 H
11 C11    -3.2716     0.1491     0.8331 C
12 H12    -3.4405     1.2203     0.6860 H
13 H13    -3.0045     0.0193     1.8895 H
14 C14     1.5452     0.3688     1.1875 C
15 H15     2.0050    -0.1518     2.0254 H
16 C16    -4.5168    -0.6397     0.5369 C
17 H17    -4.5244    -1.6530     0.9411 H
18 C18    -5.5810    -0.2541    -0.1800 C
19 C19    -5.7339     1.0968    -0.8303 C
20 H20    -4.8655     1.7442    -0.6963 H
21 H21    -5.9019     0.9793    -1.9076 H
22 H22    -6.6119     1.6173    -0.4288 H
23 C23    -6.7507    -1.1811    -0.3949 C
24 H24    -6.5994    -2.1486     0.0912 H
25 H25    -7.6733    -0.7392     0.0016 H
26 H26    -6.9177    -1.3566    -1.4647 H
27 I27     3.0885     0.2394    -0.3922 I
28 H28     1.4824     1.4322     1.4079 H
@<TRIPOS>BOND
1 1 2 1
2 1 3 2
3 1 14 1
4 3 4 1
5 3 8 1
6 4 5 1
7 4 6 1
8 4 7 1
9 8 9 1
10 8 10 1
11 8 11 1
12 11 12 1
13 11 13 1
14 11 16 1
15 14 15 1
16 14 27 1
17 14 28 1
18 16 17 1
19 16 18 2
20 18 19 1
21 18 23 1
22 19 20 1
23 19 21 1
24 19 22 1
25 23 24 1
26 23 25 1
27 23 26 1
