# title
# Created by GaussView 5.0.9
#

#
#

@<TRIPOS>MOLECULE
Molecule Name
28 27
SMALL
NO_CHARGES


@<TRIPOS>ATOM
1 C1     0.1673     0.1265    -0.5672 C
2 H2     0.1080     0.0133    -1.6479 H
3 C3     1.0265     1.0215    -0.0558 C
4 C4     1.1618     1.2877     1.4212 C
5 H5     1.9805     0.6954     1.8473 H
6 H6     1.3989     2.3418     1.5988 H
7 H7     0.2486     1.0574     1.9748 H
8 C8     1.9465     1.8091    -0.9532 C
9 H9     1.7432     1.5627    -2.0014 H
10 H10     1.7409     2.8810    -0.8289 H
11 C11     3.4402     1.5595    -0.6492 C
12 H12     3.6737     1.9198     0.3571 H
13 H13     4.0327     2.1740    -1.3390 H
14 C14    -0.7231    -0.7544     0.2215 C
15 H15    -0.3976    -0.9140     1.2470 H
16 C16     3.8141     0.1145    -0.8171 C
17 H17     3.6054    -0.2919    -1.8084 H
18 C18     4.3285    -0.7249     0.0910 C
19 C19     4.6764    -0.3577     1.5111 C
20 H20     4.4824     0.6895     1.7498 H
21 H21     4.1084    -0.9793     2.2146 H
22 H22     5.7379    -0.5532     1.7047 H
23 C23     4.6091    -2.1655    -0.2567 C
24 H24     4.3633    -2.3884    -1.2984 H
25 H25     5.6665    -2.4075    -0.0939 H
26 H26     4.0266    -2.8385     0.3847 H
27 I27    -2.7721     0.0601     0.4369 I
28 H28    -0.8905    -1.7144    -0.2629 H
@<TRIPOS>BOND
1 1 2 1
2 1 3 2
3 1 14 1
4 3 4 1
5 3 8 1
6 4 5 1
7 4 6 1
8 4 7 1
9 8 9 1
10 8 10 1
11 8 11 1
12 11 12 1
13 11 13 1
14 11 16 1
15 14 15 1
16 14 27 1
17 14 28 1
18 16 17 1
19 16 18 2
20 18 19 1
21 18 23 1
22 19 20 1
23 19 21 1
24 19 22 1
25 23 24 1
26 23 25 1
27 23 26 1
