# title
# Created by GaussView 5.0.9
#

#
#

@<TRIPOS>MOLECULE
Molecule Name
28 27
SMALL
NO_CHARGES


@<TRIPOS>ATOM
1 C1     0.0841    -0.0691     0.5419 C
2 H2    -0.1676    -1.1170     0.3900 H
3 C3    -0.7695     0.8705     0.1046 C
4 C4    -0.4946     2.3500     0.2088 C
5 H5    -0.9487     2.8802    -0.6345 H
6 H6    -0.9286     2.7708     1.1239 H
7 H7     0.5745     2.5769     0.2050 H
8 C8    -2.0863     0.4806    -0.5164 C
9 H9    -2.1553     0.9181    -1.5222 H
10 H10    -2.1413    -0.6064    -0.6390 H
11 C11    -3.3032     0.9478     0.3096 C
12 H12    -3.2583     2.0361     0.4377 H
13 H13    -3.2310     0.5168     1.3136 H
14 C14     1.3754     0.1903     1.2189 C
15 H15     1.6324    -0.5867     1.9361 H
16 C16    -4.6051     0.5903    -0.3539 C
17 H17    -4.9158     1.2607    -1.1562 H
18 C18    -5.3868    -0.4658    -0.0924 C
19 C19    -5.0941    -1.5050     0.9593 C
20 H20    -4.1452    -1.3439     1.4742 H
21 H21    -5.8918    -1.5259     1.7117 H
22 H22    -5.0627    -2.5022     0.5041 H
23 C23    -6.6633    -0.7018    -0.8590 C
24 H24    -6.8378     0.0725    -1.6110 H
25 H25    -6.6381    -1.6738    -1.3667 H
26 H26    -7.5250    -0.7209    -0.1802 H
27 I27     3.0908     0.1712    -0.1793 I
28 H28     1.4398     1.1650     1.6979 H
@<TRIPOS>BOND
1 1 2 1
2 1 3 2
3 1 14 1
4 3 4 1
5 3 8 1
6 4 5 1
7 4 6 1
8 4 7 1
9 8 9 1
10 8 10 1
11 8 11 1
12 11 12 1
13 11 13 1
14 11 16 1
15 14 15 1
16 14 27 1
17 14 28 1
18 16 17 1
19 16 18 2
20 18 19 1
21 18 23 1
22 19 20 1
23 19 21 1
24 19 22 1
25 23 24 1
26 23 25 1
27 23 26 1
