# title
# Created by GaussView 5.0.9
#

#
#

@<TRIPOS>MOLECULE
Molecule Name
28 27
SMALL
NO_CHARGES


@<TRIPOS>ATOM
1 C1     0.2958     0.8544     1.1106 C
2 H2     0.1749     0.1655     1.9452 H
3 C3    -0.8001     1.2321     0.4332 C
4 C4    -0.7820     2.1339    -0.7716 C
5 H5    -1.3709     1.6937    -1.5836 H
6 H6    -1.2453     3.0985    -0.5312 H
7 H7     0.2203     2.3191    -1.1620 H
8 C8    -2.1592     0.7136     0.8368 C
9 H9    -2.1433     0.3840     1.8816 H
10 H10    -2.9016     1.5194     0.7695 H
11 C11    -2.6308    -0.4612    -0.0491 C
12 H12    -1.8967    -1.2705     0.0322 H
13 H13    -2.6293    -0.1548    -1.1005 H
14 C14     1.6883     1.2666     0.8223 C
15 H15     2.3045     1.3029     1.7189 H
16 C16    -3.9891    -0.9672     0.3588 C
17 H17    -3.9931    -1.7322     1.1354 H
18 C18    -5.1733    -0.5460    -0.1051 C
19 C19    -5.3390     0.5226    -1.1552 C
20 H20    -4.3934     0.9688    -1.4701 H
21 H21    -5.8359     0.1148    -2.0440 H
22 H22    -5.9800     1.3282    -0.7771 H
23 C23    -6.4672    -1.1279     0.4038 C
24 H24    -6.2980    -1.8978     1.1613 H
25 H25    -7.1008    -0.3472     0.8425 H
26 H26    -7.0401    -1.5760    -0.4177 H
27 I27     2.7551    -0.1921    -0.4586 I
28 H28     1.7759     2.2057     0.2804 H
@<TRIPOS>BOND
1 1 2 1
2 1 3 2
3 1 14 1
4 3 4 1
5 3 8 1
6 4 5 1
7 4 6 1
8 4 7 1
9 8 9 1
10 8 10 1
11 8 11 1
12 11 12 1
13 11 13 1
14 11 16 1
15 14 15 1
16 14 27 1
17 14 28 1
18 16 17 1
19 16 18 2
20 18 19 1
21 18 23 1
22 19 20 1
23 19 21 1
24 19 22 1
25 23 24 1
26 23 25 1
27 23 26 1
