# title
# Created by GaussView 5.0.9
#

#
#

@<TRIPOS>MOLECULE
Molecule Name
28 27
SMALL
NO_CHARGES


@<TRIPOS>ATOM
1 C1     0.2061     0.9570     1.0851 C
2 H2    -0.1565     0.2168     1.7961 H
3 C3    -0.6936     1.6328     0.3515 C
4 C4    -0.3254     2.6227    -0.7219 C
5 H5    -0.3130     2.1309    -1.7020 H
6 H6    -1.0624     3.4309    -0.7726 H
7 H7     0.6593     3.0708    -0.5732 H
8 C8    -2.1669     1.3608     0.5209 C
9 H9    -2.3296     0.6874     1.3692 H
10 H10    -2.6921     2.2978     0.7517 H
11 C11    -2.8038     0.7315    -0.7375 C
12 H12    -2.2351    -0.1656    -1.0059 H
13 H13    -2.7034     1.4235    -1.5814 H
14 C14     1.6777     1.0864     0.9957 C
15 H15     2.1767     0.8693     1.9379 H
16 C16    -4.2620     0.4160    -0.5355 C
17 H17    -4.9566     1.2249    -0.7637 H
18 C18    -4.7764    -0.7310    -0.0717 C
19 C19    -3.9524    -1.9304     0.3210 C
20 H20    -2.8799    -1.7818     0.1822 H
21 H21    -4.1236    -2.1750     1.3765 H
22 H22    -4.2528    -2.8111    -0.2596 H
23 C23    -6.2627    -0.9079     0.1056 C
24 H24    -6.8179    -0.0137    -0.1905 H
25 H25    -6.6277    -1.7522    -0.4921 H
26 H26    -6.5049    -1.1317     1.1519 H
27 I27     2.5585    -0.3946    -0.3955 I
28 H28     2.0240     2.0416     0.6065 H
@<TRIPOS>BOND
1 1 2 1
2 1 3 2
3 1 14 1
4 3 4 1
5 3 8 1
6 4 5 1
7 4 6 1
8 4 7 1
9 8 9 1
10 8 10 1
11 8 11 1
12 11 12 1
13 11 13 1
14 11 16 1
15 14 15 1
16 14 27 1
17 14 28 1
18 16 17 1
19 16 18 2
20 18 19 1
21 18 23 1
22 19 20 1
23 19 21 1
24 19 22 1
25 23 24 1
26 23 25 1
27 23 26 1
