# title
# Created by GaussView 5.0.9
#

#
#

@<TRIPOS>MOLECULE
Molecule Name
28 27
SMALL
NO_CHARGES


@<TRIPOS>ATOM
1 C1     0.0972     1.7458    -0.3392 C
2 H2     0.1846     1.9669    -1.4024 H
3 C3    -1.1234     1.7823     0.2212 C
4 C4    -1.4045     1.4555     1.6617 C
5 H5    -1.7552     2.3500     2.1908 H
6 H6    -2.2092     0.7153     1.7170 H
7 H7    -0.5400     1.0548     2.1942 H
8 C8    -2.3214     2.1570    -0.6258 C
9 H9    -3.0715     2.6575    -0.0005 H
10 H10    -2.0113     2.8784    -1.3894 H
11 C11    -2.9803     0.9533    -1.3416 C
12 H12    -2.2131     0.4359    -1.9261 H
13 H13    -3.7029     1.3537    -2.0636 H
14 C14     1.3693     1.4351     0.3493 C
15 H15     1.3419     1.5796     1.4268 H
16 C16    -3.7040     0.0036    -0.4265 C
17 H17    -4.6800     0.3518    -0.0836 H
18 C18    -3.2838    -1.1897     0.0153 C
19 C19    -1.9471    -1.7992    -0.3117 C
20 H20    -1.3364    -1.1830    -0.9727 H
21 H21    -1.3697    -1.9534     0.6082 H
22 H22    -2.0743    -2.7850    -0.7753 H
23 C23    -4.1406    -2.0224     0.9350 C
24 H24    -5.1036    -1.5467     1.1401 H
25 H25    -4.3315    -3.0097     0.4971 H
26 H26    -3.6301    -2.1947     1.8910 H
27 I27     1.9930    -0.6794     0.1154 I
28 H28     2.2119     1.9796    -0.0722 H
@<TRIPOS>BOND
1 1 2 1
2 1 3 2
3 1 14 1
4 3 4 1
5 3 8 1
6 4 5 1
7 4 6 1
8 4 7 1
9 8 9 1
10 8 10 1
11 8 11 1
12 11 12 1
13 11 13 1
14 11 16 1
15 14 15 1
16 14 27 1
17 14 28 1
18 16 17 1
19 16 18 2
20 18 19 1
21 18 23 1
22 19 20 1
23 19 21 1
24 19 22 1
25 23 24 1
26 23 25 1
27 23 26 1
