# title
# Created by GaussView 6.0.16
#

#
#

@<TRIPOS>MOLECULE
Molecule Name
53 55
SMALL
NO_CHARGES


@<TRIPOS>ATOM
1 C1     3.1486    -0.0602     0.1620 C
2 C2     1.6269    -0.3018    -0.1099 C
3 C3     0.6310     0.8157     0.3302 C
4 C4     1.1495     2.1851    -0.1531 C
5 C5     2.5977     2.4451     0.2527 C
6 C6     3.5147     1.3623    -0.3057 C
7 H7     1.5635    -0.3234    -1.2119 H
8 H8     1.0852     2.2260    -1.2510 H
9 H9     0.5081     2.9846     0.2309 H
10 H10     2.9057     3.4236    -0.1276 H
11 H11     2.6831     2.5048     1.3440 H
12 H12     3.4671     1.3968    -1.4036 H
13 H13     4.5569     1.5660    -0.0368 H
14 C14    -0.7376     0.5389    -0.3796 C
15 C15     1.1253    -1.6564     0.3922 C
16 H16     1.8005    -2.4617     0.0974 H
17 H17     1.0813    -1.6726     1.4845 H
18 C18    -0.2577    -1.9698    -0.1693 C
19 C19    -1.2030    -0.8528    -0.3382 C
20 C20     3.5809    -0.2577     1.6263 C
21 H21     3.2349    -1.2106     2.0383 H
22 H22     4.6739    -0.2671     1.6782 H
23 H23     3.2441     0.5405     2.2904 H
24 C24     3.9571    -1.0558    -0.6922 C
25 H25     3.6472    -1.0321    -1.7431 H
26 H26     5.0195    -0.7965    -0.6569 H
27 H27     3.8705    -2.0850    -0.3300 H
28 C28     0.3819     0.8437     1.8521 C
29 H29     1.3157     0.8103     2.4096 H
30 H30    -0.1346     1.7601     2.1477 H
31 H31    -0.2326     0.0033     2.1913 H
32 C32    -2.5975    -1.1899    -0.6984 C
33 H33    -2.8374    -2.2174    -0.4086 H
34 H34    -0.5223     0.5522    -1.4789 H
35 C35    -1.8332     1.6041    -0.1563 C
36 H36    -1.9209     1.7770     0.9196 H
37 H37    -1.5014     2.5407    -0.6068 H
38 C38    -3.1967     1.2147    -0.7155 C
39 H39    -3.1803     1.2118    -1.8132 H
40 H40    -3.9338     1.9673    -0.4183 H
41 C41    -3.6492    -0.1711    -0.2199 C
42 H42    -2.6061    -1.1798    -1.8024 H
43 C43    -5.0182    -0.5325    -0.8127 C
44 H44    -5.3235    -1.5408    -0.5184 H
45 H45    -5.7811     0.1658    -0.4575 H
46 H46    -4.9987    -0.4782    -1.9061 H
47 C47    -3.7359    -0.1588     1.2890 C
48 C48    -3.0513    -0.9111     2.1506 C
49 H49    -4.4479     0.5656     1.6854 H
50 H50    -2.3570    -1.6900     1.8437 H
51 H51    -3.1864    -0.7982     3.2207 H
52 H52    -0.1642    -2.3348    -1.2128 H
53 H53    -0.7607    -2.8007     0.3394 H
@<TRIPOS>BOND
1 1 2 1
2 1 6 1
3 1 20 1
4 1 24 1
5 2 3 1
6 2 7 1
7 2 15 1
8 3 4 1
9 3 14 1
10 3 28 1
11 4 5 1
12 4 8 1
13 4 9 1
14 5 6 1
15 5 10 1
16 5 11 1
17 6 12 1
18 6 13 1
19 14 19 1
20 14 34 1
21 14 35 1
22 15 16 1
23 15 17 1
24 15 18 1
25 18 19 1
26 18 52 1
27 18 53 1
28 19 32 1
29 20 21 1
30 20 22 1
31 20 23 1
32 24 25 1
33 24 26 1
34 24 27 1
35 28 29 1
36 28 30 1
37 28 31 1
38 32 33 1
39 32 41 1
40 32 42 1
41 35 36 1
42 35 37 1
43 35 38 1
44 38 39 1
45 38 40 1
46 38 41 1
47 41 43 1
48 41 47 1
49 43 44 1
50 43 45 1
51 43 46 1
52 47 48 2
53 47 49 1
54 48 50 1
55 48 51 1
