# title
# Created by GaussView 6.0.16
#

#
#

@<TRIPOS>MOLECULE
Molecule Name
53 54
SMALL
NO_CHARGES


@<TRIPOS>ATOM
1 C1     3.0773     0.0008     0.2153 C
2 C2     1.6281    -0.2291    -0.3330 C
3 C3     0.5580     0.7964     0.1380 C
4 C4     1.0471     2.2266    -0.1520 C
5 C5     2.4267     2.4821     0.4625 C
6 C6     3.4527     1.4748    -0.0455 C
7 H7     1.7332    -0.0556    -1.4155 H
8 H8     1.1166     2.3713    -1.2384 H
9 H9     0.3287     2.9599     0.2256 H
10 H10     2.7407     3.4964     0.1982 H
11 H11     2.3719     2.4625     1.5562 H
12 H12     3.5785     1.6171    -1.1278 H
13 H13     4.4305     1.6738     0.4067 H
14 C14    -0.7574     0.5658    -0.8248 C
15 C15     1.1328    -1.6627    -0.1633 C
16 H16     1.8356    -2.3800    -0.5897 H
17 H17     1.0158    -1.9257     0.8915 H
18 C18    -0.2275    -1.8835    -0.8867 C
19 C19    -1.1683    -0.7977    -0.5573 C
20 C20     3.2627    -0.3529     1.7002 C
21 H21     2.9670    -1.3847     1.9140 H
22 H22     4.3225    -0.2653     1.9575 H
23 H23     2.7142     0.3016     2.3782 H
24 C24     4.0512    -0.8753    -0.5952 C
25 H25     3.9044    -0.7503    -1.6738 H
26 H26     5.0826    -0.5888    -0.3688 H
27 H27     3.9570    -1.9384    -0.3546 H
28 C28     0.1274     0.6609     1.6056 C
29 H29     0.8728     1.0891     2.2736 H
30 H30    -0.8073     1.1936     1.7926 H
31 H31    -0.0218    -0.3782     1.9151 H
32 C32    -2.4588    -1.1497     0.0454 C
33 H33    -2.2418    -1.7300     0.9594 H
34 H34    -0.3029     0.5812    -1.8229 H
35 C35    -1.8533     1.6364    -0.7076 C
36 H36    -1.7551     2.1743     0.2366 H
37 H37    -1.7040     2.3737    -1.5001 H
38 C38    -3.2605     1.0462    -0.7971 C
39 H39    -3.4201     0.6020    -1.7895 H
40 H40    -4.0056     1.8407    -0.7020 H
41 C41    -3.5082    -0.0388     0.2639 C
42 H42    -2.8540    -1.9293    -0.6320 H
43 C43    -4.9045    -0.6626     0.0670 C
44 H44    -5.0891    -1.4587     0.7955 H
45 H45    -5.6761     0.0987     0.2045 H
46 H46    -5.0112    -1.0839    -0.9391 H
47 C47    -3.4442     0.4758     1.6929 C
48 C48    -3.6681     1.7216     2.1049 C
49 H49    -3.2770    -0.2923     2.4496 H
50 H50    -3.8670     2.5410     1.4196 H
51 H51    -3.6737     1.9628     3.1625 H
52 H52    -0.0384    -1.8367    -1.9677 H
53 H53    -0.6438    -2.8653    -0.6511 H
@<TRIPOS>BOND
1 1 2 1
2 1 6 1
3 1 20 1
4 1 24 1
5 2 3 1
6 2 7 1
7 2 15 1
8 3 4 1
9 3 28 1
10 4 5 1
11 4 8 1
12 4 9 1
13 5 6 1
14 5 10 1
15 5 11 1
16 6 12 1
17 6 13 1
18 14 19 1
19 14 34 1
20 14 35 1
21 15 16 1
22 15 17 1
23 15 18 1
24 18 19 1
25 18 52 1
26 18 53 1
27 19 32 1
28 20 21 1
29 20 22 1
30 20 23 1
31 24 25 1
32 24 26 1
33 24 27 1
34 28 29 1
35 28 30 1
36 28 31 1
37 32 33 1
38 32 41 1
39 32 42 1
40 35 36 1
41 35 37 1
42 35 38 1
43 38 39 1
44 38 40 1
45 38 41 1
46 41 43 1
47 41 47 1
48 43 44 1
49 43 45 1
50 43 46 1
51 47 48 2
52 47 49 1
53 48 50 1
54 48 51 1
