# title
# Created by GaussView 6.0.16
#

#
#

@<TRIPOS>MOLECULE
Molecule Name
53 55
SMALL
NO_CHARGES


@<TRIPOS>ATOM
1 C1     3.1173    -0.0744     0.0949 C
2 C2     1.5679    -0.2424    -0.0347 C
3 C3     0.6804     0.9965     0.2993 C
4 C4     1.2489     2.2511    -0.3960 C
5 C5     2.7374     2.4599    -0.1307 C
6 C6     3.5295     1.2414    -0.5979 C
7 H7     1.4110    -0.4087    -1.1161 H
8 H8     1.1176     2.1436    -1.4823 H
9 H9     0.6747     3.1352    -0.0937 H
10 H10     3.0769     3.3506    -0.6674 H
11 H11     2.9171     2.6598     0.9316 H
12 H12     3.3890     1.1280    -1.6824 H
13 H13     4.6019     1.4006    -0.4411 H
14 C14    -0.7112     0.7081    -0.3430 C
15 C15     1.0339    -1.4876     0.6826 C
16 H16     1.5080    -2.3828     0.2760 H
17 H17     1.2764    -1.4574     1.7464 H
18 C18    -0.4935    -1.6657     0.5103 C
19 C19    -1.1388    -0.6934    -0.3601 C
20 C20     3.6585    -0.0885     1.5369 C
21 H21     3.3340    -0.9697     2.0977 H
22 H22     4.7517    -0.1210     1.5022 H
23 H23     3.3890     0.7982     2.1130 H
24 C24     3.7961    -1.2357    -0.6567 C
25 H25     3.3966    -1.3483    -1.6710 H
26 H26     4.8700    -1.0458    -0.7457 H
27 H27     3.6830    -2.1911    -0.1348 H
28 C28     0.5541     1.2494     1.8126 C
29 H29     1.5326     1.3562     2.2759 H
30 H30     0.0079     2.1756     2.0087 H
31 H31     0.0382     0.4431     2.3441 H
32 C32    -2.3332    -1.0328    -1.1356 C
33 H33    -2.5071    -2.1093    -1.1874 H
34 H34    -0.6941     1.0317    -1.3950 H
35 C35    -1.9268     1.4931     0.2889 C
36 H36    -1.9827     1.2521     1.3514 H
37 H37    -1.6810     2.5546     0.2056 H
38 C38    -3.2508     1.1899    -0.4027 C
39 H39    -3.2342     1.5893    -1.4236 H
40 H40    -4.0578     1.7171     0.1169 H
41 C41    -3.5857    -0.3058    -0.4719 C
42 H42    -2.2426    -0.6263    -2.1491 H
43 C43    -4.7918    -0.5575    -1.3906 C
44 H44    -5.0008    -1.6265    -1.4904 H
45 H45    -5.6790    -0.0818    -0.9648 H
46 H46    -4.6201    -0.1434    -2.3890 H
47 C47    -3.8617    -0.9650     0.8653 C
48 C48    -4.0887    -0.3694     2.0343 C
49 H49    -3.9370    -2.0525     0.8169 H
50 H50    -4.0659     0.7087     2.1647 H
51 H51    -4.3400    -0.9546     2.9126 H
52 H52    -0.7925    -2.6883     0.2709 H
53 H53    -1.0185    -1.4299     1.4641 H
@<TRIPOS>BOND
1 1 2 1
2 1 6 1
3 1 20 1
4 1 24 1
5 2 3 1
6 2 7 1
7 2 15 1
8 3 4 1
9 3 14 1
10 3 28 1
11 4 5 1
12 4 8 1
13 4 9 1
14 5 6 1
15 5 10 1
16 5 11 1
17 6 12 1
18 6 13 1
19 14 19 1
20 14 34 1
21 14 35 1
22 15 16 1
23 15 17 1
24 15 18 1
25 18 19 1
26 18 52 1
27 18 53 1
28 19 32 1
29 20 21 1
30 20 22 1
31 20 23 1
32 24 25 1
33 24 26 1
34 24 27 1
35 28 29 1
36 28 30 1
37 28 31 1
38 32 33 1
39 32 41 1
40 32 42 1
41 35 36 1
42 35 37 1
43 35 38 1
44 38 39 1
45 38 40 1
46 38 41 1
47 41 43 1
48 41 47 1
49 43 44 1
50 43 45 1
51 43 46 1
52 47 48 2
53 47 49 1
54 48 50 1
55 48 51 1
