# title
# Created by GaussView 6.0.16
#

#
#

@<TRIPOS>MOLECULE
Molecule Name
53 55
SMALL
NO_CHARGES


@<TRIPOS>ATOM
1 C1     3.2091    -0.0803    -0.1925 C
2 C2     1.6882    -0.2927    -0.4679 C
3 C3     0.7171     0.7296     0.1929 C
4 C4     1.1896     2.1645    -0.1284 C
5 C5     2.6681     2.3977     0.1780 C
6 C6     3.5482     1.3819    -0.5444 C
7 H7     1.5910    -0.1064    -1.5496 H
8 H8     1.0259     2.3581    -1.1988 H
9 H9     0.5790     2.8874     0.4227 H
10 H10     2.9368     3.4118    -0.1324 H
11 H11     2.8471     2.3591     1.2585 H
12 H12     3.4315     1.5194    -1.6287 H
13 H13     4.6045     1.5680    -0.3220 H
14 C14    -0.6744     0.5315    -0.4904 C
15 C15     1.2359    -1.7458    -0.2313 C
16 H16     1.5674    -2.3658    -1.0674 H
17 H17     1.7089    -2.1641     0.6597 H
18 C18    -0.2815    -1.9355    -0.0937 C
19 C19    -1.1709    -0.8435    -0.4550 C
20 C20     3.6472    -0.3857     1.2507 C
21 H21     3.4286    -1.4170     1.5446 H
22 H22     4.7317    -0.2619     1.3275 H
23 H23     3.1961     0.2757     1.9910 H
24 C24     4.0114    -0.9998    -1.1294 C
25 H25     3.7155    -0.8650    -2.1761 H
26 H26     5.0786    -0.7695    -1.0558 H
27 H27     3.8932    -2.0573    -0.8723 H
28 C28     0.5694     0.5378     1.7215 C
29 H29     1.2600     1.1819     2.2668 H
30 H30    -0.4362     0.7921     2.0697 H
31 H31     0.7796    -0.4850     2.0455 H
32 C32    -2.5751    -1.1490    -0.7856 C
33 H33    -2.8162    -2.1850    -0.5251 H
34 H34    -0.4843     0.5613    -1.5929 H
35 C35    -1.7292     1.6279    -0.2145 C
36 H36    -1.6957     1.8532     0.8533 H
37 H37    -1.4219     2.5378    -0.7326 H
38 C38    -3.1528     1.2626    -0.6340 C
39 H39    -3.2462     1.3224    -1.7257 H
40 H40    -3.8458     2.0107    -0.2363 H
41 C41    -3.5934    -0.1395    -0.1974 C
42 H42    -2.6188    -1.0960    -1.8881 H
43 C43    -4.9831    -0.4658    -0.7681 C
44 H44    -5.2983    -1.4783    -0.4971 H
45 H45    -5.7223     0.2319    -0.3666 H
46 H46    -4.9894    -0.3847    -1.8604 H
47 C47    -3.6315    -0.3469     1.3073 C
48 C48    -3.6715     0.5909     2.2517 C
49 H49    -3.7009    -1.3916     1.6164 H
50 H50    -3.6456     1.6537     2.0284 H
51 H51    -3.7596     0.3209     3.2986 H
52 H52    -0.6441    -2.8916    -0.4843 H
53 H53    -0.5722    -1.9678     0.9848 H
@<TRIPOS>BOND
1 1 2 1
2 1 6 1
3 1 20 1
4 1 24 1
5 2 3 1
6 2 7 1
7 2 15 1
8 3 4 1
9 3 14 1
10 3 28 1
11 4 5 1
12 4 8 1
13 4 9 1
14 5 6 1
15 5 10 1
16 5 11 1
17 6 12 1
18 6 13 1
19 14 19 1
20 14 34 1
21 14 35 1
22 15 16 1
23 15 17 1
24 15 18 1
25 18 19 1
26 18 52 1
27 18 53 1
28 19 32 1
29 20 21 1
30 20 22 1
31 20 23 1
32 24 25 1
33 24 26 1
34 24 27 1
35 28 29 1
36 28 30 1
37 28 31 1
38 32 33 1
39 32 41 1
40 32 42 1
41 35 36 1
42 35 37 1
43 35 38 1
44 38 39 1
45 38 40 1
46 38 41 1
47 41 43 1
48 41 47 1
49 43 44 1
50 43 45 1
51 43 46 1
52 47 48 2
53 47 49 1
54 48 50 1
55 48 51 1
