# title
# Created by GaussView 6.0.16
#

#
#

@<TRIPOS>MOLECULE
Molecule Name
53 55
SMALL
NO_CHARGES


@<TRIPOS>ATOM
1 C1     3.1460    -0.0214    -0.0714 C
2 C2     1.6368    -0.2581    -0.3870 C
3 C3     0.6286     0.7238     0.2797 C
4 C4     1.0775     2.1772     0.0125 C
5 C5     2.5434     2.4316     0.3604 C
6 C6     3.4609     1.4575    -0.3729 C
7 H7     1.5594    -0.0436    -1.4652 H
8 H8     0.9341     2.4002    -1.0552 H
9 H9     0.4392     2.8701     0.5710 H
10 H10     2.7968     3.4608     0.0890 H
11 H11     2.6994     2.3614     1.4428 H
12 H12     3.3638     1.6246    -1.4550 H
13 H13     4.5081     1.6591    -0.1224 H
14 C14    -0.7408     0.5162    -0.4439 C
15 C15     1.2122    -1.7265    -0.2017 C
16 H16     1.5830    -2.3159    -1.0433 H
17 H17     1.6688    -2.1565     0.6922 H
18 C18    -0.3040    -1.9538    -0.1154 C
19 C19    -1.2070    -0.8696    -0.4669 C
20 C20     3.5581    -0.3614     1.3718 C
21 H21     3.3645    -1.4086     1.6239 H
22 H22     4.6360    -0.2078     1.4804 H
23 H23     3.0679     0.2591     2.1225 H
24 C24     3.9894    -0.8960    -1.0153 C
25 H25     3.7169    -0.7355    -2.0647 H
26 H26     5.0495    -0.6478    -0.9078 H
27 H27     3.8861    -1.9629    -0.7927 H
28 C28     0.4486     0.4855     1.7981 C
29 H29     1.1178     1.1228     2.3771 H
30 H30    -0.5680     0.7170     2.1295 H
31 H31     0.6652    -0.5431     2.0985 H
32 C32    -2.5933    -1.1939    -0.8510 C
33 H33    -2.8205    -2.2418    -0.6276 H
34 H34    -0.5239     0.5853    -1.5398 H
35 C35    -1.8274     1.5802    -0.1648 C
36 H36    -1.8395     1.7648     0.9112 H
37 H37    -1.5218     2.5148    -0.6378 H
38 C38    -3.2262     1.2003    -0.6495 C
39 H39    -3.2799     1.2907    -1.7418 H
40 H40    -3.9489     1.9224    -0.2568 H
41 C41    -3.6516    -0.2228    -0.2697 C
42 H42    -2.6014    -1.1109    -1.9525 H
43 C43    -5.0140    -0.5596    -0.8977 C
44 H44    -5.3169    -1.5857    -0.6674 H
45 H45    -5.7806     0.1115    -0.5024 H
46 H46    -4.9835    -0.4461    -1.9868 H
47 C47    -3.7357    -0.4744     1.2264 C
48 C48    -3.8407     0.4345     2.1939 C
49 H49    -3.7809    -1.5291     1.5043 H
50 H50    -3.8439     1.5035     2.0012 H
51 H51    -3.9561     0.1315     3.2291 H
52 H52    -0.6332    -2.9036    -0.5488 H
53 H53    -0.6250    -2.0299     0.9521 H
@<TRIPOS>BOND
1 1 2 1
2 1 6 1
3 1 20 1
4 1 24 1
5 2 3 1
6 2 7 1
7 2 15 1
8 3 4 1
9 3 14 1
10 3 28 1
11 4 5 1
12 4 8 1
13 4 9 1
14 5 6 1
15 5 10 1
16 5 11 1
17 6 12 1
18 6 13 1
19 14 19 1
20 14 34 1
21 14 35 1
22 15 16 1
23 15 17 1
24 15 18 1
25 18 19 1
26 18 52 1
27 18 53 1
28 19 32 1
29 20 21 1
30 20 22 1
31 20 23 1
32 24 25 1
33 24 26 1
34 24 27 1
35 28 29 1
36 28 30 1
37 28 31 1
38 32 33 1
39 32 41 1
40 32 42 1
41 35 36 1
42 35 37 1
43 35 38 1
44 38 39 1
45 38 40 1
46 38 41 1
47 41 43 1
48 41 47 1
49 43 44 1
50 43 45 1
51 43 46 1
52 47 48 2
53 47 49 1
54 48 50 1
55 48 51 1
