# title
# Created by GaussView 6.0.16
#

#
#

@<TRIPOS>MOLECULE
Molecule Name
53 55
SMALL
NO_CHARGES


@<TRIPOS>ATOM
1 C1     3.1480    -0.0025     0.1367 C
2 C2     1.6288    -0.2612    -0.1332 C
3 C3     0.6266     0.8714     0.2502 C
4 C4     1.1433     2.2190    -0.2924 C
5 C5     2.5893     2.5021     0.1062 C
6 C6     3.5121     1.3971    -0.3967 C
7 H7     1.5725    -0.3325    -1.2335 H
8 H8     1.0831     2.2090    -1.3913 H
9 H9     0.4984     3.0334     0.0523 H
10 H10     2.8958     3.4626    -0.3184 H
11 H11     2.6700     2.6131     1.1939 H
12 H12     3.4697     1.3787    -1.4951 H
13 H13     4.5525     1.6168    -0.1329 H
14 C14    -0.7377     0.5575    -0.4527 C
15 C15     1.1288    -1.5941     0.4254 C
16 H16     1.8086    -2.4091     0.1702 H
17 H17     1.0783    -1.5624     1.5170 H
18 C18    -0.2494    -1.9377    -0.1300 C
19 C19    -1.1978    -0.8329    -0.3529 C
20 C20     3.5720    -0.1285     1.6113 C
21 H21     3.2227    -1.0605     2.0660 H
22 H22     4.6646    -0.1359     1.6697 H
23 H23     3.2318     0.7010     2.2339 H
24 C24     3.9639    -1.0362    -0.6634 C
25 H25     3.6561    -1.0703    -1.7146 H
26 H26     5.0248    -0.7690    -0.6402 H
27 H27     3.8829    -2.0452    -0.2472 H
28 C28     0.3699     0.9666     1.7679 C
29 H29     1.3015     0.9661     2.3303 H
30 H30    -0.1551     1.8911     2.0195 H
31 H31    -0.2390     0.1367     2.1413 H
32 C32    -2.5888    -1.1917    -0.7062 C
33 H33    -2.8266    -2.2054    -0.3700 H
34 H34    -0.5181     0.5233    -1.5508 H
35 C35    -1.8393     1.6257    -0.2803 C
36 H36    -1.9376     1.8394     0.7873 H
37 H37    -1.5080     2.5458    -0.7639 H
38 C38    -3.1960     1.2077    -0.8352 C
39 H39    -3.1687     1.1567    -1.9315 H
40 H40    -3.9384     1.9697    -0.5782 H
41 C41    -3.6487    -0.1569    -0.2838 C
42 H42    -2.5889    -1.2344    -1.8095 H
43 C43    -5.0105    -0.5502    -0.8727 C
44 H44    -5.3171    -1.5432    -0.5315 H
45 H45    -5.7783     0.1629    -0.5602 H
46 H46    -4.9796    -0.5505    -1.9672 H
47 C47    -3.7510    -0.0784     1.2223 C
48 C48    -3.0737    -0.7893     2.1239 C
49 H49    -4.4699     0.6596     1.5788 H
50 H50    -2.3731    -1.5783     1.8600 H
51 H51    -3.2219    -0.6307     3.1864 H
52 H52    -0.1477    -2.3475    -1.1559 H
53 H53    -0.7523    -2.7477     0.4114 H
@<TRIPOS>BOND
1 1 2 1
2 1 6 1
3 1 20 1
4 1 24 1
5 2 3 1
6 2 7 1
7 2 15 1
8 3 4 1
9 3 14 1
10 3 28 1
11 4 5 1
12 4 8 1
13 4 9 1
14 5 6 1
15 5 10 1
16 5 11 1
17 6 12 1
18 6 13 1
19 14 19 1
20 14 34 1
21 14 35 1
22 15 16 1
23 15 17 1
24 15 18 1
25 18 19 1
26 18 52 1
27 18 53 1
28 19 32 1
29 20 21 1
30 20 22 1
31 20 23 1
32 24 25 1
33 24 26 1
34 24 27 1
35 28 29 1
36 28 30 1
37 28 31 1
38 32 33 1
39 32 41 1
40 32 42 1
41 35 36 1
42 35 37 1
43 35 38 1
44 38 39 1
45 38 40 1
46 38 41 1
47 41 43 1
48 41 47 1
49 43 44 1
50 43 45 1
51 43 46 1
52 47 48 2
53 47 49 1
54 48 50 1
55 48 51 1
