# title
# Created by GaussView 6.0.16
#

#
#

@<TRIPOS>MOLECULE
Molecule Name
53 55
SMALL
NO_CHARGES


@<TRIPOS>ATOM
1 C1     3.1226    -0.1908     0.2602 C
2 C2     1.5959    -0.3694    -0.0304 C
3 C3     0.6436     0.7939     0.3866 C
4 C4     1.2273     2.1351    -0.1037 C
5 C5     2.6803     2.3359     0.3177 C
6 C6     3.5561     1.2085    -0.2184 C
7 H7     1.5460    -0.3984    -1.1330 H
8 H8     1.1783     2.1675    -1.2027 H
9 H9     0.6176     2.9661     0.2646 H
10 H10     3.0359     3.2962    -0.0677 H
11 H11     2.7542     2.4025     1.4094 H
12 H12     3.5233     1.2328    -1.3170 H
13 H13     4.6027     1.3706     0.0618 H
14 C14    -0.7269     0.5687    -0.3363 C
15 C15     1.0310    -1.6977     0.4751 C
16 H16     1.6785    -2.5323     0.1996 H
17 H17     0.9661    -1.7022     1.5665 H
18 C18    -0.3522    -1.9582    -0.1115 C
19 C19    -1.2465    -0.8041    -0.3037 C
20 C20     3.5253    -0.3887     1.7329 C
21 H21     3.1229    -1.3153     2.1538 H
22 H22     4.6154    -0.4560     1.7998 H
23 H23     3.2232     0.4366     2.3803 H
24 C24     3.8988    -1.2312    -0.5701 C
25 H25     3.6004    -1.2125    -1.6245 H
26 H26     4.9702    -1.0128    -0.5282 H
27 H27     3.7690    -2.2501    -0.1922 H
28 C28     0.3777     0.8467     1.9052 C
29 H29     1.3014     0.7696     2.4752 H
30 H30    -0.0949     1.7907     2.1870 H
31 H31    -0.2841     0.0418     2.2418 H
32 C32    -2.6444    -1.0861    -0.6963 C
33 H33    -2.9295    -2.1058    -0.4200 H
34 H34    -0.5033     0.5788    -1.4339 H
35 C35    -1.7870     1.6711    -0.1178 C
36 H36    -1.8872     1.8330     0.9587 H
37 H37    -1.4127     2.6003    -0.5499 H
38 C38    -3.1536     1.3396    -0.7056 C
39 H39    -3.1168     1.3460    -1.8028 H
40 H40    -3.8672     2.1169    -0.4144 H
41 C41    -3.6680    -0.0325    -0.2315 C
42 H42    -2.6288    -1.0663    -1.8000 H
43 C43    -5.0359    -0.3377    -0.8572 C
44 H44    -5.3849    -1.3363    -0.5791 H
45 H45    -5.7805     0.3850    -0.5123 H
46 H46    -4.9897    -0.2749    -1.9493 H
47 C47    -3.7868    -0.0285     1.2752 C
48 C48    -3.1440    -0.8068     2.1458 C
49 H49    -4.4850     0.7143     1.6618 H
50 H50    -2.4673    -1.6045     1.8483 H
51 H51    -3.2981    -0.6965     3.2136 H
52 H52    -0.2537    -2.3336    -1.1508 H
53 H53    -0.8988    -2.7646     0.3916 H
@<TRIPOS>BOND
1 1 2 1
2 1 6 1
3 1 20 1
4 1 24 1
5 2 3 1
6 2 7 1
7 2 15 1
8 3 4 1
9 3 14 1
10 3 28 1
11 4 5 1
12 4 8 1
13 4 9 1
14 5 6 1
15 5 10 1
16 5 11 1
17 6 12 1
18 6 13 1
19 14 19 1
20 14 34 1
21 14 35 1
22 15 16 1
23 15 17 1
24 15 18 1
25 18 19 1
26 18 52 1
27 18 53 1
28 19 32 1
29 20 21 1
30 20 22 1
31 20 23 1
32 24 25 1
33 24 26 1
34 24 27 1
35 28 29 1
36 28 30 1
37 28 31 1
38 32 33 1
39 32 41 1
40 32 42 1
41 35 36 1
42 35 37 1
43 35 38 1
44 38 39 1
45 38 40 1
46 38 41 1
47 41 43 1
48 41 47 1
49 43 44 1
50 43 45 1
51 43 46 1
52 47 48 2
53 47 49 1
54 48 50 1
55 48 51 1
