# title
# Created by GaussView 6.0.16
#

#
#

@<TRIPOS>MOLECULE
Molecule Name
53 55
SMALL
NO_CHARGES


@<TRIPOS>ATOM
1 C1     3.0427     0.2536    -0.8803 C
2 C2     1.5111    -0.0652    -0.8648 C
3 C3     0.5667     0.9685    -0.1767 C
4 C4     0.9110     2.3875    -0.6731 C
5 C5     2.3958     2.7135    -0.5356 C
6 C6     3.2401     1.7171    -1.3229 C
7 H7     1.2333    -0.0382    -1.9330 H
8 H8     0.6343     2.4747    -1.7348 H
9 H9     0.3177     3.1291    -0.1289 H
10 H10     2.5755     3.7268    -0.9069 H
11 H11     2.6851     2.7221     0.5217 H
12 H12     2.9827     1.8046    -2.3881 H
13 H13     4.3032     1.9692    -1.2414 H
14 C14    -0.8998     0.6405    -0.6179 C
15 C15     1.1890    -1.4713    -0.3554 C
16 H16     1.8280    -2.2186    -0.8296 H
17 H17     1.3728    -1.5460     0.7199 H
18 C18    -0.2626    -1.8411    -0.6421 C
19 C19    -1.2769    -0.7767    -0.5563 C
20 C20     3.7654     0.0111     0.4571 C
21 H21     3.5620    -0.9830     0.8665 H
22 H22     4.8455     0.0749     0.2943 H
23 H23     3.5213     0.7501     1.2223 H
24 C24     3.7142    -0.6479    -1.9341 C
25 H25     3.2002    -0.5922    -2.9003 H
26 H26     4.7473    -0.3244    -2.0932 H
27 H27     3.7557    -1.6971    -1.6252 H
28 C28     0.6245     0.9125     1.3635 C
29 H29     1.6505     0.9226     1.7254 H
30 H30     0.1217     1.7756     1.8064 H
31 H31     0.1441     0.0157     1.7681 H
32 C32    -2.6968    -1.1806    -0.6480 C
33 H33    -2.8236    -2.2312    -0.3698 H
34 H34    -0.9076     0.7126    -1.7355 H
35 C35    -1.9798     1.6286    -0.1273 C
36 H36    -1.8574     1.7538     0.9516 H
37 H37    -1.7939     2.6005    -0.5867 H
38 C38    -3.4069     1.1837    -0.4247 C
39 H39    -3.6098     1.2266    -1.5029 H
40 H40    -4.1059     1.8799     0.0495 H
41 C41    -3.6827    -0.2459     0.0781 C
42 H42    -2.9245    -1.1261    -1.7271 H
43 C43    -5.1220    -0.6637    -0.2532 C
44 H44    -5.3084    -1.7024     0.0344 H
45 H45    -5.8335    -0.0337     0.2876 H
46 H46    -5.3246    -0.5554    -1.3236 H
47 C47    -3.4686    -0.2985     1.5733 C
48 C48    -2.5852    -1.0363     2.2458 C
49 H49    -4.1249     0.3636     2.1384 H
50 H50    -1.9236    -1.7580     1.7719 H
51 H51    -2.5082    -0.9700     3.3255 H
52 H52    -0.3684    -2.1538    -1.7012 H
53 H53    -0.6088    -2.7215    -0.0881 H
@<TRIPOS>BOND
1 1 2 1
2 1 6 1
3 1 20 1
4 1 24 1
5 2 3 1
6 2 7 1
7 2 15 1
8 3 4 1
9 3 14 1
10 3 28 1
11 4 5 1
12 4 8 1
13 4 9 1
14 5 6 1
15 5 10 1
16 5 11 1
17 6 12 1
18 6 13 1
19 14 19 1
20 14 34 1
21 14 35 1
22 15 16 1
23 15 17 1
24 15 18 1
25 18 19 1
26 18 52 1
27 18 53 1
28 19 32 1
29 20 21 1
30 20 22 1
31 20 23 1
32 24 25 1
33 24 26 1
34 24 27 1
35 28 29 1
36 28 30 1
37 28 31 1
38 32 33 1
39 32 41 1
40 32 42 1
41 35 36 1
42 35 37 1
43 35 38 1
44 38 39 1
45 38 40 1
46 38 41 1
47 41 43 1
48 41 47 1
49 43 44 1
50 43 45 1
51 43 46 1
52 47 48 2
53 47 49 1
54 48 50 1
55 48 51 1
