# title
# Created by GaussView 6.0.16
#

#
#

@<TRIPOS>MOLECULE
Molecule Name
53 55
SMALL
NO_CHARGES


@<TRIPOS>ATOM
1 C1     3.1337     0.0231    -0.7365 C
2 C2     1.5924    -0.2434    -0.7715 C
3 C3     0.6606     0.8282    -0.1254 C
4 C4     1.0709     2.2297    -0.6206 C
5 C5     2.5600     2.5067    -0.4317 C
6 C6     3.3970     1.4755    -1.1811 C
7 H7     1.3525    -0.2174    -1.8489 H
8 H8     0.8359     2.3157    -1.6923 H
9 H9     0.4838     2.9961    -0.1049 H
10 H10     2.7872     3.5102    -0.8033 H
11 H11     2.8113     2.5141     0.6353 H
12 H12     3.1807     1.5636    -2.2554 H
13 H13     4.4646     1.6915    -1.0633 H
14 C14    -0.7997     0.5466    -0.6173 C
15 C15     1.2053    -1.6323    -0.2605 C
16 H16     1.8328    -2.4057    -0.7073 H
17 H17     1.3536    -1.7024     0.8205 H
18 C18    -0.2485    -1.9562    -0.5891 C
19 C19    -1.2271    -0.8561    -0.5558 C
20 C20     3.8012    -0.2340     0.6268 C
21 H21     3.5486    -1.2173     1.0347 H
22 H22     4.8879    -0.2099     0.5009 H
23 H23     3.5567     0.5187     1.3785 H
24 C24     3.8085    -0.9093    -1.7610 C
25 H25     3.3306    -0.8406    -2.7447 H
26 H26     4.8579    -0.6256    -1.8858 H
27 H27     3.7998    -1.9573    -1.4455 H
28 C28     0.6611     0.7845     1.4160 C
29 H29     1.6731     0.7612     1.8152 H
30 H30     0.1733     1.6684     1.8338 H
31 H31     0.1351    -0.0912     1.8098 H
32 C32    -2.6553    -1.2131    -0.6981 C
33 H33    -2.8279    -2.2551    -0.4123 H
34 H34    -0.7643     0.6077    -1.7350 H
35 C35    -1.8630     1.5752    -0.1756 C
36 H36    -1.7777     1.7048     0.9064 H
37 H37    -1.6260     2.5363    -0.6341 H
38 C38    -3.2918     1.1772    -0.5261 C
39 H39    -3.4501     1.2177    -1.6118 H
40 H40    -3.9846     1.9016    -0.0860 H
41 C41    -3.6382    -0.2371    -0.0239 C
42 H42    -2.8387    -1.1661    -1.7860 H
43 C43    -5.0757    -0.6093    -0.4121 C
44 H44    -5.3099    -1.6373    -0.1211 H
45 H45    -5.7875     0.0516     0.0901 H
46 H46    -5.2295    -0.5078    -1.4913 H
47 C47    -3.4906    -0.2820     1.4799 C
48 C48    -2.6577    -1.0375     2.1957 C
49 H49    -4.1528     0.4023     2.0105 H
50 H50    -1.9947    -1.7791     1.7558 H
51 H51    -2.6264    -0.9645     3.2774 H
52 H52    -0.3310    -2.2865    -1.6449 H
53 H53    -0.6440    -2.8130    -0.0311 H
@<TRIPOS>BOND
1 1 2 1
2 1 6 1
3 1 20 1
4 1 24 1
5 2 3 1
6 2 7 1
7 2 15 1
8 3 4 1
9 3 14 1
10 3 28 1
11 4 5 1
12 4 8 1
13 4 9 1
14 5 6 1
15 5 10 1
16 5 11 1
17 6 12 1
18 6 13 1
19 14 19 1
20 14 34 1
21 14 35 1
22 15 16 1
23 15 17 1
24 15 18 1
25 18 19 1
26 18 52 1
27 18 53 1
28 19 32 1
29 20 21 1
30 20 22 1
31 20 23 1
32 24 25 1
33 24 26 1
34 24 27 1
35 28 29 1
36 28 30 1
37 28 31 1
38 32 33 1
39 32 41 1
40 32 42 1
41 35 36 1
42 35 37 1
43 35 38 1
44 38 39 1
45 38 40 1
46 38 41 1
47 41 43 1
48 41 47 1
49 43 44 1
50 43 45 1
51 43 46 1
52 47 48 2
53 47 49 1
54 48 50 1
55 48 51 1
