# title
# Created by GaussView 6.0.16
#

#
#

@<TRIPOS>MOLECULE
Molecule Name
53 55
SMALL
NO_CHARGES


@<TRIPOS>ATOM
1 C1     3.2592    -0.4482    -0.1412 C
2 C2     1.7128    -0.5332    -0.3567 C
3 C3     0.8408     0.6417     0.1873 C
4 C4     1.4678     1.9866    -0.2358 C
5 C5     2.9489     2.0849     0.1198 C
6 C6     3.7355     0.9607    -0.5453 C
7 H7     1.6037    -0.4827    -1.4543 H
8 H8     1.3652     2.1045    -1.3251 H
9 H9     0.9223     2.8161     0.2251 H
10 H10     3.3336     3.0538    -0.2122 H
11 H11     3.0809     2.0633     1.2078 H
12 H12     3.6415     1.0669    -1.6355 H
13 H13     4.8030     1.0543    -0.3174 H
14 C14    -0.5687     0.5298    -0.4828 C
15 C15     1.1096    -1.8665     0.0892 C
16 H16     1.6961    -2.7088    -0.2826 H
17 H17     1.1108    -1.9482     1.1795 H
18 C18    -0.3171    -2.0218    -0.4262 C
19 C19    -1.1562    -0.8144    -0.5101 C
20 C20     3.7292    -0.7715     1.2887 C
21 H21     3.3140    -1.7135     1.6599 H
22 H22     4.8180    -0.8804     1.2906 H
23 H23     3.4916     0.0109     2.0119 H
24 C24     3.9365    -1.4584    -1.0872 C
25 H25     3.5828    -1.3452    -2.1182 H
26 H26     5.0180    -1.2927    -1.0918 H
27 H27     3.7761    -2.4962    -0.7795 H
28 C28     0.6469     0.5999     1.7166 C
29 H29     1.5931     0.4588     2.2352 H
30 H30     0.2176     1.5359     2.0823 H
31 H31    -0.0237    -0.2062     2.0321 H
32 C32    -2.5802    -1.0027    -0.8614 C
33 H33    -2.9093    -2.0197    -0.6270 H
34 H34    -0.3909     0.5979    -1.5867 H
35 C35    -1.5613     1.6663    -0.1539 C
36 H36    -1.6221     1.7598     0.9336 H
37 H37    -1.1518     2.6025    -0.5359 H
38 C38    -2.9587     1.4447    -0.7202 C
39 H39    -2.9494     1.5173    -1.8159 H
40 H40    -3.6216     2.2393    -0.3633 H
41 C41    -3.5361     0.0748    -0.3152 C
42 H42    -2.5973    -0.9284    -1.9630 H
43 C43    -4.9288    -0.1236    -0.9291 C
44 H44    -5.3258    -1.1164    -0.6988 H
45 H45    -5.6288     0.6167    -0.5320 H
46 H46    -4.8978    -0.0036    -2.0170 H
47 C47    -3.6290    -0.0021     1.1913 C
48 C48    -2.9930    -0.8428     2.0070 C
49 H49    -4.2978     0.7383     1.6308 H
50 H50    -2.3425    -1.6408     1.6564 H
51 H51    -3.1256    -0.7850     3.0819 H
52 H52    -0.3015    -2.3519    -1.4849 H
53 H53    -0.8795    -2.8207     0.0722 H
@<TRIPOS>BOND
1 1 2 1
2 1 6 1
3 1 20 1
4 1 24 1
5 2 3 1
6 2 7 1
7 2 15 1
8 3 4 1
9 3 14 1
10 3 28 1
11 4 5 1
12 4 8 1
13 4 9 1
14 5 6 1
15 5 10 1
16 5 11 1
17 6 12 1
18 6 13 1
19 14 19 1
20 14 34 1
21 14 35 1
22 15 16 1
23 15 17 1
24 15 18 1
25 18 19 1
26 18 52 1
27 18 53 1
28 19 32 1
29 20 21 1
30 20 22 1
31 20 23 1
32 24 25 1
33 24 26 1
34 24 27 1
35 28 29 1
36 28 30 1
37 28 31 1
38 32 33 1
39 32 41 1
40 32 42 1
41 35 36 1
42 35 37 1
43 35 38 1
44 38 39 1
45 38 40 1
46 38 41 1
47 41 43 1
48 41 47 1
49 43 44 1
50 43 45 1
51 43 46 1
52 47 48 2
53 47 49 1
54 48 50 1
55 48 51 1
