# title
# Created by GaussView 6.0.16
#

#
#

@<TRIPOS>MOLECULE
Molecule Name
53 55
SMALL
NO_CHARGES


@<TRIPOS>ATOM
1 C1     3.1088    -0.0089    -0.1716 C
2 C2     1.5582    -0.2115    -0.2389 C
3 C3     0.6520     0.9237     0.3346 C
4 C4     1.1534     2.2975    -0.1566 C
5 C5     2.6472     2.5029     0.0744 C
6 C6     3.4463     1.4199    -0.6416 C
7 H7     1.3451    -0.2269    -1.3218 H
8 H8     0.9591     2.3849    -1.2362 H
9 H9     0.5869     3.0973     0.3317 H
10 H10     2.9364     3.4887    -0.3013 H
11 H11     2.8701     2.5093     1.1478 H
12 H12     3.2500     1.4966    -1.7206 H
13 H13     4.5209     1.5884    -0.5118 H
14 C14    -0.7753     0.7005    -0.2482 C
15 C15     1.1073    -1.5605     0.3286 C
16 H16     1.6661    -2.3769    -0.1324 H
17 H17     1.3217    -1.6075     1.3988 H
18 C18    -0.3838    -1.8163     0.0994 C
19 C19    -1.2501    -0.6874    -0.2390 C
20 C20     3.7309    -0.2569     1.2146 C
21 H21     3.4841    -1.2462     1.6109 H
22 H22     4.8208    -0.2132     1.1269 H
23 H23     3.4459     0.4883     1.9596 H
24 C24     3.7695    -0.9934    -1.1553 C
25 H25     3.3291    -0.9177    -2.1558 H
26 H26     4.8361    -0.7676    -1.2485 H
27 H27     3.6930    -2.0333    -0.8229 H
28 C28     0.5641     0.9051     1.8741 C
29 H29     1.5489     0.8337     2.3326 H
30 H30     0.1016     1.8201     2.2522 H
31 H31    -0.0250     0.0605     2.2510 H
32 C32    -2.6358    -0.9905    -0.6409 C
33 H33    -2.8741    -2.0436    -0.4649 H
34 H34    -0.6904     0.8142    -1.3560 H
35 C35    -1.8552     1.7335     0.1774 C
36 H36    -1.8474     1.8066     1.2675 H
37 H37    -1.5549     2.7110    -0.2029 H
38 C38    -3.2596     1.4009    -0.3167 C
39 H39    -3.3211     1.5560    -1.4017 H
40 H40    -3.9703     2.0963     0.1401 H
41 C41    -3.6972    -0.0424    -0.0035 C
42 H42    -2.6597    -0.8316    -1.7323 H
43 C43    -5.0521    -0.3326    -0.6492 C
44 H44    -5.3603    -1.3707    -0.4935 H
45 H45    -5.8234     0.3193    -0.2306 H
46 H46    -5.0107    -0.1489    -1.7271 H
47 C47    -3.6884    -0.2972     1.4918 C
48 C48    -4.7095    -0.7118     2.2383 C
49 H49    -2.7351    -0.1162     1.9949 H
50 H50    -5.6919    -0.9158     1.8247 H
51 H51    -4.5919    -0.8546     3.3071 H
52 H52    -0.5792    -2.6036    -0.6452 H
53 H53    -0.8853    -2.2327     0.9967 H
@<TRIPOS>BOND
1 1 2 1
2 1 6 1
3 1 20 1
4 1 24 1
5 2 3 1
6 2 7 1
7 2 15 1
8 3 4 1
9 3 14 1
10 3 28 1
11 4 5 1
12 4 8 1
13 4 9 1
14 5 6 1
15 5 10 1
16 5 11 1
17 6 12 1
18 6 13 1
19 14 19 1
20 14 34 1
21 14 35 1
22 15 16 1
23 15 17 1
24 15 18 1
25 18 19 1
26 18 52 1
27 18 53 1
28 19 32 1
29 20 21 1
30 20 22 1
31 20 23 1
32 24 25 1
33 24 26 1
34 24 27 1
35 28 29 1
36 28 30 1
37 28 31 1
38 32 33 1
39 32 41 1
40 32 42 1
41 35 36 1
42 35 37 1
43 35 38 1
44 38 39 1
45 38 40 1
46 38 41 1
47 41 43 1
48 41 47 1
49 43 44 1
50 43 45 1
51 43 46 1
52 47 48 2
53 47 49 1
54 48 50 1
55 48 51 1
