# title
# Created by GaussView 6.0.16
#

#
#

@<TRIPOS>MOLECULE
Molecule Name
53 55
SMALL
NO_CHARGES


@<TRIPOS>ATOM
1 C1     3.1739    -0.1571     0.0040 C
2 C2     1.6175    -0.2879    -0.0768 C
3 C3     0.7717     0.9794     0.2584 C
4 C4     1.3498     2.2051    -0.4794 C
5 C5     2.8502     2.3809    -0.2619 C
6 C6     3.5974     1.1338    -0.7279 C
7 H7     1.4251    -0.4709    -1.1497 H
8 H8     1.1843     2.0788    -1.5591 H
9 H9     0.8069     3.1094    -0.1794 H
10 H10     3.1960     3.2524    -0.8255 H
11 H11     3.0658     2.5959     0.7908 H
12 H12     3.4221     1.0030    -1.8054 H
13 H13     4.6776     1.2692    -0.6054 H
14 C14    -0.6463     0.7155    -0.3343 C
15 C15     1.0742    -1.5048     0.6810 C
16 H16     1.5123    -2.4195     0.2772 H
17 H17     1.3512    -1.4612     1.7358 H
18 C18    -0.4619    -1.6454     0.5616 C
19 C19    -1.1120    -0.6740    -0.3056 C
20 C20     3.7589    -0.1553     1.4289 C
21 H21     3.4287    -1.0144     2.0198 H
22 H22     4.8491    -0.2196     1.3607 H
23 H23     3.5326     0.7512     1.9927 H
24 C24     3.8010    -1.3499    -0.7429 C
25 H25     3.3685    -1.4733    -1.7423 H
26 H26     4.8758    -1.1879    -0.8679 H
27 H27     3.6810    -2.2916    -0.1981 H
28 C28     0.6990     1.2642     1.7695 C
29 H29     1.6934     1.3547     2.2015 H
30 H30     0.1822     2.2075     1.9637 H
31 H31     0.1793     0.4813     2.3314 H
32 C32    -2.3427    -0.9963    -1.0303 C
33 H33    -2.5474    -2.0685    -1.0500 H
34 H34    -0.6529     1.0129    -1.3942 H
35 C35    -1.8181     1.5503     0.3155 C
36 H36    -1.8445     1.3381     1.3852 H
37 H37    -1.5462     2.6021     0.1965 H
38 C38    -3.1730     1.2678    -0.3225 C
39 H39    -3.1818     1.6406    -1.3535 H
40 H40    -3.9463     1.8305     0.2108 H
41 C41    -3.5505    -0.2192    -0.3414 C
42 H42    -2.2766    -0.6165    -2.0559 H
43 C43    -4.7956    -0.4602    -1.2093 C
44 H44    -5.0367    -1.5251    -1.2734 H
45 H45    -5.6540     0.0502    -0.7648 H
46 H46    -4.6492    -0.0764    -2.2238 H
47 C47    -3.7949    -0.8380     1.0209 C
48 C48    -3.9623    -0.2092     2.1826 C
49 H49    -3.9018    -1.9238     1.0023 H
50 H50    -3.9041     0.8704     2.2863 H
51 H51    -4.1966    -0.7664     3.0835 H
52 H52    -0.7962    -2.6641     0.3544 H
53 H53    -0.9489    -1.3754     1.5268 H
@<TRIPOS>BOND
1 1 2 1
2 1 6 1
3 1 20 1
4 1 24 1
5 2 3 1
6 2 7 1
7 2 15 1
8 3 4 1
9 3 14 1
10 3 28 1
11 4 5 1
12 4 8 1
13 4 9 1
14 5 6 1
15 5 10 1
16 5 11 1
17 6 12 1
18 6 13 1
19 14 19 1
20 14 34 1
21 14 35 1
22 15 16 1
23 15 17 1
24 15 18 1
25 18 19 1
26 18 52 1
27 18 53 1
28 19 32 1
29 20 21 1
30 20 22 1
31 20 23 1
32 24 25 1
33 24 26 1
34 24 27 1
35 28 29 1
36 28 30 1
37 28 31 1
38 32 33 1
39 32 41 1
40 32 42 1
41 35 36 1
42 35 37 1
43 35 38 1
44 38 39 1
45 38 40 1
46 38 41 1
47 41 43 1
48 41 47 1
49 43 44 1
50 43 45 1
51 43 46 1
52 47 48 2
53 47 49 1
54 48 50 1
55 48 51 1
