# title
# Created by GaussView 6.0.16
#

#
#

@<TRIPOS>MOLECULE
Molecule Name
53 55
SMALL
NO_CHARGES


@<TRIPOS>ATOM
1 C1     3.1307     0.0211    -0.1902 C
2 C2     1.6068    -0.2061    -0.4343 C
3 C3     0.6409     0.8297     0.2127 C
4 C4     1.1008     2.2570    -0.1567 C
5 C5     2.5829     2.5066     0.1177 C
6 C6     3.4570     1.4743    -0.5884 C
7 H7     1.4915    -0.0508    -1.5192 H
8 H8     0.9183     2.4197    -1.2293 H
9 H9     0.4957     2.9926     0.3837 H
10 H10     2.8406     3.5120    -0.2285 H
11 H11     2.7801     2.5027     1.1956 H
12 H12     3.3240     1.5808    -1.6744 H
13 H13     4.5155     1.6713    -0.3866 H
14 C14    -0.7594     0.6065    -0.4441 C
15 C15     1.1663    -1.6539    -0.1489 C
16 H16     1.4922    -2.2971    -0.9696 H
17 H17     1.6517    -2.0424     0.7489 H
18 C18    -0.3485    -1.8476     0.0109 C
19 C19    -1.2475    -0.7700    -0.3692 C
20 C20     3.5952    -0.2407     1.2533 C
21 H21     3.3809    -1.2618     1.5833 H
22 H22     4.6811    -0.1166     1.3059 H
23 H23     3.1590     0.4442     1.9814 H
24 C24     3.9218    -0.9206    -1.1147 C
25 H25     3.6016    -0.8219    -2.1582 H
26 H26     4.9880    -0.6783    -1.0723 H
27 H27     3.8196    -1.9703    -0.8214 H
28 C28     0.5190     0.6801     1.7482 C
29 H29     1.2150     1.3433     2.2630 H
30 H30    -0.4819     0.9389     2.1063 H
31 H31     0.7409    -0.3316     2.0980 H
32 C32    -2.6533    -1.0910    -0.6782 C
33 H33    -2.8856    -2.1218    -0.3904 H
34 H34    -0.5864     0.6115    -1.5499 H
35 C35    -1.8175     1.7024    -0.1784 C
36 H36    -1.7750     1.9483     0.8845 H
37 H37    -1.5213     2.6037    -0.7175 H
38 C38    -3.2429     1.3204    -0.5758 C
39 H39    -3.3469     1.3540    -1.6677 H
40 H40    -3.9362     2.0737    -0.1887 H
41 C41    -3.6711    -0.0737    -0.1023 C
42 H42    -2.7095    -1.0644    -1.7810 H
43 C43    -5.0653    -0.4212    -0.6490 C
44 H44    -5.3716    -1.4284    -0.3497 H
45 H45    -5.8036     0.2821    -0.2559 H
46 H46    -5.0847    -0.3668    -1.7428 H
47 C47    -3.6908    -0.2469     1.4071 C
48 C48    -3.7256     0.7115     2.3308 C
49 H49    -3.7497    -1.2847     1.7408 H
50 H50    -3.7099     1.7692     2.0838 H
51 H51    -3.7997     0.4643     3.3844 H
52 H52    -0.7103    -2.8157    -0.3495 H
53 H53    -0.6268    -1.8515     1.0933 H
@<TRIPOS>BOND
1 1 2 1
2 1 6 1
3 1 20 1
4 1 24 1
5 2 3 1
6 2 7 1
7 2 15 1
8 3 4 1
9 3 14 1
10 3 28 1
11 4 5 1
12 4 8 1
13 4 9 1
14 5 6 1
15 5 10 1
16 5 11 1
17 6 12 1
18 6 13 1
19 14 19 1
20 14 34 1
21 14 35 1
22 15 16 1
23 15 17 1
24 15 18 1
25 18 19 1
26 18 52 1
27 18 53 1
28 19 32 1
29 20 21 1
30 20 22 1
31 20 23 1
32 24 25 1
33 24 26 1
34 24 27 1
35 28 29 1
36 28 30 1
37 28 31 1
38 32 33 1
39 32 41 1
40 32 42 1
41 35 36 1
42 35 37 1
43 35 38 1
44 38 39 1
45 38 40 1
46 38 41 1
47 41 43 1
48 41 47 1
49 43 44 1
50 43 45 1
51 43 46 1
52 47 48 2
53 47 49 1
54 48 50 1
55 48 51 1
