# title
# Created by GaussView 6.0.16
#

#
#

@<TRIPOS>MOLECULE
Molecule Name
42 43
SMALL
NO_CHARGES


@<TRIPOS>ATOM
1 C1    -0.2172    -1.8063    -0.4767 C
2 C2     0.1560     0.7126    -0.1724 C
3 C3     2.1193    -0.8614    -0.5004 C
4 C4     1.2438    -2.0570    -0.1315 C
5 H5    -0.9012    -2.5360    -0.0294 H
6 H6    -0.3781    -1.9539    -1.5644 H
7 H7     1.5765    -2.9501    -0.6670 H
8 H8     1.3432    -2.2857     0.9346 H
9 C9    -0.4939     1.9245     0.5314 C
10 C10    -2.2143    -0.2320    -0.3377 C
11 C11    -2.5417     1.1935    -0.8176 C
12 C12    -1.8924     2.3040     0.0112 C
13 H13    -0.5383     1.6974     1.5992 H
14 H14    -1.8365     3.2072    -0.6009 H
15 H15     0.1805     2.7739     0.4349 H
16 H16    -2.5306     2.5551     0.8625 H
17 H17    -2.2286     1.2700    -1.8663 H
18 C18     1.7014     0.2572     1.7723 C
19 H19     0.9421    -0.4346     2.1555 H
20 H20     2.6791    -0.1188     2.0812 H
21 H21     1.5595     1.2164     2.2757 H
22 C22    -2.6316    -0.4323     1.1641 C
23 H23    -2.4979    -1.4699     1.4776 H
24 H24    -2.0984     0.2182     1.8590 H
25 H25    -3.6958    -0.1885     1.2230 H
26 C26    -2.9770    -1.2534    -1.1983 C
27 H27    -4.0420    -1.0139    -1.1577 H
28 H28    -2.6658    -1.2000    -2.2461 H
29 H29    -2.8660    -2.2824    -0.8511 H
30 C30     3.5957    -1.2099    -0.2935 C
31 H31     3.8404    -2.1165    -0.8540 H
32 H32     4.2627    -0.4227    -0.6487 H
33 H33     3.8259    -1.4072     0.7576 H
34 C34    -0.7449    -0.4475    -0.2904 C
35 C35     1.6372     0.4192     0.2422 C
36 H36     0.1775     0.9578    -1.2656 H
37 H37     1.9838    -0.6680    -1.5772 H
38 C38     2.5200     1.6055    -0.1778 C
39 H39     2.1729     2.5513     0.2426 H
40 H40     3.5391     1.4641     0.1868 H
41 H41    -3.6288     1.3116    -0.8189 H
42 H42     2.5646     1.7087    -1.2678 H
@<TRIPOS>BOND
1 1 4 1
2 1 5 1
3 1 6 1
4 1 34 1
5 2 9 1
6 2 34 1
7 2 35 1
8 2 36 1
9 3 4 1
10 3 30 1
11 3 35 1
12 3 37 1
13 4 7 1
14 4 8 1
15 9 12 1
16 9 13 1
17 9 15 1
18 10 11 1
19 10 22 1
20 10 26 1
21 10 34 1
22 11 12 1
23 11 17 1
24 11 41 1
25 12 14 1
26 12 16 1
27 18 19 1
28 18 20 1
29 18 21 1
30 18 35 1
31 22 23 1
32 22 24 1
33 22 25 1
34 26 27 1
35 26 28 1
36 26 29 1
37 30 31 1
38 30 32 1
39 30 33 1
40 35 38 1
41 38 39 1
42 38 40 1
43 38 42 1
