# title
# Created by GaussView 6.0.16
#

#
#

@<TRIPOS>MOLECULE
Molecule Name
42 43
SMALL
NO_CHARGES


@<TRIPOS>ATOM
1 C1     0.0811    -1.6495    -1.0096 C
2 C2     0.4094     0.7487    -0.3653 C
3 C3     2.0083    -1.1062     0.4983 C
4 C4     1.5956    -1.7179    -0.8482 C
5 H5    -0.4359    -2.4510    -0.4665 H
6 H6    -0.2318    -1.8115    -2.0548 H
7 H7     2.0858    -1.1926    -1.6758 H
8 H8     1.9168    -2.7602    -0.9148 H
9 C9    -0.2581     2.0982    -0.1144 C
10 C10    -1.9804    -0.1962    -0.5218 C
11 C11    -2.4877     1.2355    -0.8950 C
12 C12    -1.3982     2.2879    -1.1082 C
13 H13    -0.6390     2.1603     0.9100 H
14 H14    -1.0004     2.2211    -2.1290 H
15 H15     0.4873     2.8904    -0.2183 H
16 H16    -1.8335     3.2850    -1.0112 H
17 H17    -3.0906     1.1488    -1.8026 H
18 C18     1.5333     0.9708     1.9206 C
19 H19     0.6446     0.5763     2.4207 H
20 H20     2.4032     0.6971     2.5246 H
21 H21     1.4731     2.0615     1.9215 H
22 C22    -2.1658    -0.4387     1.0282 C
23 H23    -1.8952    -1.4577     1.3143 H
24 H24    -1.6110     0.2721     1.6435 H
25 H25    -3.2318    -0.3017     1.2263 H
26 C26    -2.7952    -1.2558    -1.2743 C
27 H27    -3.8577    -1.0666    -1.1028 H
28 H28    -2.6202    -1.1961    -2.3528 H
29 H29    -2.5900    -2.2759    -0.9410 H
30 C30     1.3787    -1.8869     1.6600 C
31 H31     1.5344    -2.9604     1.5173 H
32 H32     1.8298    -1.6164     2.6159 H
33 H33     0.3012    -1.7184     1.7583 H
34 C34    -0.5135    -0.3580    -0.6164 C
35 C35     1.7125     0.4231     0.4978 C
36 H36     0.8153     0.7841    -1.4059 H
37 H37     3.0945    -1.2132     0.5913 H
38 C38     2.8922     1.1605    -0.1590 C
39 H39     2.6794     2.2242    -0.3008 H
40 H40     3.7781     1.0870     0.4776 H
41 H41    -3.1669     1.5648    -0.1031 H
42 H42     3.1481     0.7337    -1.1343 H
@<TRIPOS>BOND
1 1 4 1
2 1 5 1
3 1 6 1
4 1 34 1
5 2 9 1
6 2 34 1
7 2 35 1
8 2 36 1
9 3 4 1
10 3 30 1
11 3 35 1
12 3 37 1
13 4 7 1
14 4 8 1
15 9 12 1
16 9 13 1
17 9 15 1
18 10 11 1
19 10 22 1
20 10 26 1
21 10 34 1
22 11 12 1
23 11 17 1
24 11 41 1
25 12 14 1
26 12 16 1
27 18 19 1
28 18 20 1
29 18 21 1
30 18 35 1
31 22 23 1
32 22 24 1
33 22 25 1
34 26 27 1
35 26 28 1
36 26 29 1
37 30 31 1
38 30 32 1
39 30 33 1
40 35 38 1
41 38 39 1
42 38 40 1
43 38 42 1
