# title
# Created by GaussView 6.0.16
#

#
#

@<TRIPOS>MOLECULE
Molecule Name
42 42
SMALL
NO_CHARGES


@<TRIPOS>ATOM
1 C1     0.3919    -1.7656    -0.9584 C
2 C2     0.7298     0.6443    -0.4481 C
3 C3     1.5159    -1.2158     1.2022 C
4 C4     1.6847    -1.9337    -0.1467 C
5 H5    -0.3461    -2.5368    -0.7311 H
6 H6     0.5902    -1.8687    -2.0406 H
7 H7     2.5493    -1.5404    -0.6902 H
8 H8     1.8713    -3.0000    -0.0003 H
9 C9     0.2094     2.0722    -0.6246 C
10 C10    -1.6281    -0.1421    -1.0709 C
11 C11    -2.0853     0.9967    -0.1271 C
12 C12    -1.2615     2.2892    -0.2089 C
13 H13     0.8634     2.7631    -0.0891 H
14 H14    -1.7225     2.9757    -0.9235 H
15 H15     0.3314     2.3323    -1.6798 H
16 H16    -1.3090     2.7877     0.7621 H
17 H17    -3.1356     1.2060    -0.3507 H
18 C18     0.7373     1.0476     2.1219 C
19 H19    -0.3169     0.7802     2.2124 H
20 H20     1.2266     0.7941     3.0672 H
21 H21     0.8089     2.1316     2.0100 H
22 C22    -2.5468    -1.3622    -0.9121 C
23 H23    -2.3310    -2.1437    -1.6448 H
24 H24    -2.4817    -1.7916     0.0923 H
25 H25    -3.5815    -1.0482    -1.0692 H
26 C26    -1.6850     0.3174    -2.5682 C
27 H27    -2.7252     0.5851    -2.7725 H
28 H28    -1.0630     1.1860    -2.7840 H
29 H29    -1.4033    -0.4970    -3.2400 H
30 C30     0.3124    -1.7848     1.9630 C
31 H31     0.3442    -2.8781     1.9653 H
32 H32     0.2972    -1.4512     3.0017 H
33 H33    -0.6490    -1.4860     1.5228 H
34 C34    -0.1965    -0.4214    -0.8118 C
35 C35     1.4572     0.3213     0.9808 C
36 H36     1.5753     0.4857    -1.1373 H
37 H37     2.4120    -1.4142     1.8007 H
38 C38     2.8824     0.8842     0.8701 C
39 H39     2.8802     1.9369     0.5729 H
40 H40     3.3779     0.8194     1.8428 H
41 H41    -2.0710     0.5963     0.8928 H
42 H42     3.4899     0.3288     0.1490 H
@<TRIPOS>BOND
1 1 4 1
2 1 5 1
3 1 6 1
4 1 34 1
5 2 9 1
6 2 34 1
7 2 36 1
8 3 4 1
9 3 30 1
10 3 35 1
11 3 37 1
12 4 7 1
13 4 8 1
14 9 12 1
15 9 13 1
16 9 15 1
17 10 11 1
18 10 22 1
19 10 26 1
20 10 34 1
21 11 12 1
22 11 17 1
23 11 41 1
24 12 14 1
25 12 16 1
26 18 19 1
27 18 20 1
28 18 21 1
29 18 35 1
30 22 23 1
31 22 24 1
32 22 25 1
33 26 27 1
34 26 28 1
35 26 29 1
36 30 31 1
37 30 32 1
38 30 33 1
39 35 38 1
40 38 39 1
41 38 40 1
42 38 42 1
