# title
# Created by GaussView 6.0.16
#

#
#

@<TRIPOS>MOLECULE
Molecule Name
42 42
SMALL
NO_CHARGES


@<TRIPOS>ATOM
1 C1     0.2026    -1.5288    -1.4070 C
2 C2     0.4929     0.8085    -0.6235 C
3 C3     2.0335    -1.0248     0.3157 C
4 C4     1.0125    -2.0502    -0.1733 C
5 H5    -0.5090    -2.2811    -1.7414 H
6 H6     0.9190    -1.3140    -2.2056 H
7 H7     1.5099    -2.9692    -0.4942 H
8 H8     0.3236    -2.3326     0.6303 H
9 C9    -0.1709     2.1912    -0.5569 C
10 C10    -1.8767    -0.1789    -0.7187 C
11 C11    -2.2581     0.9119     0.2973 C
12 C12    -1.5563     2.2663     0.1187 C
13 H13     0.5163     2.8984    -0.0918 H
14 H14    -2.1884     2.9297    -0.4771 H
15 H15    -0.2625     2.5310    -1.5933 H
16 H16    -1.4729     2.7413     1.0993 H
17 H17    -3.3420     1.0482     0.2398 H
18 C18     0.5507     0.2831     1.9477 C
19 H19    -0.1884    -0.5241     1.9399 H
20 H20     1.2080     0.1190     2.8049 H
21 H21     0.0298     1.2267     2.1241 H
22 C22    -2.5771    -1.4979    -0.3536 C
23 H23    -2.5107    -2.2537    -1.1383 H
24 H24    -2.1758    -1.9169     0.5738 H
25 H25    -3.6382    -1.2941    -0.1911 H
26 C26    -2.3196     0.2469    -2.1716 C
27 H27    -3.4042     0.3788    -2.1219 H
28 H28    -1.8770     1.1906    -2.4954 H
29 H29    -2.0991    -0.5273    -2.9098 H
30 C30     2.8347    -1.6411     1.4710 C
31 H31     3.3611    -2.5327     1.1212 H
32 H32     3.5882    -0.9555     1.8631 H
33 H33     2.1844    -1.9449     2.2965 H
34 C34    -0.4208    -0.2933    -0.9246 C
35 C35     1.3862     0.3465     0.6658 C
36 H36     1.2548     0.8240    -1.4127 H
37 H37     2.7353    -0.8374    -0.5099 H
38 C38     2.4774     1.4115     0.8333 C
39 H39     2.0666     2.3731     1.1470 H
40 H40     3.1739     1.1022     1.6160 H
41 H41    -2.0624     0.5106     1.2947 H
42 H42     3.0485     1.5593    -0.0882 H
@<TRIPOS>BOND
1 1 4 1
2 1 5 1
3 1 6 1
4 1 34 1
5 2 9 1
6 2 34 1
7 2 36 1
8 3 4 1
9 3 30 1
10 3 35 1
11 3 37 1
12 4 7 1
13 4 8 1
14 9 12 1
15 9 13 1
16 9 15 1
17 10 11 1
18 10 22 1
19 10 26 1
20 10 34 1
21 11 12 1
22 11 17 1
23 11 41 1
24 12 14 1
25 12 16 1
26 18 19 1
27 18 20 1
28 18 21 1
29 18 35 1
30 22 23 1
31 22 24 1
32 22 25 1
33 26 27 1
34 26 28 1
35 26 29 1
36 30 31 1
37 30 32 1
38 30 33 1
39 35 38 1
40 38 39 1
41 38 40 1
42 38 42 1
