# title
# Created by GaussView 6.0.16
#

#
#

@<TRIPOS>MOLECULE
Molecule Name
42 43
SMALL
NO_CHARGES


@<TRIPOS>ATOM
1 C1    -0.3664    -1.5643     0.7774 C
2 C2     0.1648     0.7223    -0.1538 C
3 C3     1.9085    -1.0297    -0.3087 C
4 C4     1.0889    -2.0208     0.5257 C
5 H5    -0.4652    -1.1911     1.8180 H
6 H6    -1.0906    -2.3766     0.7039 H
7 H7     1.0533    -2.9829     0.0077 H
8 H8     1.5828    -2.2025     1.4842 H
9 C9    -0.5043     1.9126     0.6401 C
10 C10    -2.1656    -0.2041    -0.4716 C
11 C11    -2.4129     1.2474    -0.9165 C
12 C12    -1.9161     2.2585     0.1258 C
13 H13    -0.5214     1.6586     1.7034 H
14 H14    -1.9239     3.2558    -0.3195 H
15 H15     0.1805     2.7567     0.5339 H
16 H16    -2.6137     2.2918     0.9674 H
17 H17    -1.9158     1.4298    -1.8761 H
18 C18     1.9930     0.6244     1.6468 C
19 H19     1.3574     0.0422     2.3213 H
20 H20     3.0268     0.3284     1.8385 H
21 H21     1.9053     1.6748     1.9361 H
22 C22    -3.2223    -0.6629     0.5563 C
23 H23    -3.1135    -1.7116     0.8386 H
24 H24    -3.1870    -0.0527     1.4631 H
25 H25    -4.2113    -0.5445     0.1077 H
26 C26    -2.2092    -1.1482    -1.7192 C
27 H27    -3.1851    -1.0068    -2.1907 H
28 H28    -1.4396    -0.8935    -2.4534 H
29 H29    -2.1081    -2.1999    -1.4431 H
30 C30     3.3754    -1.4590    -0.3354 C
31 H31     3.4566    -2.4999    -0.6613 H
32 H32     3.9637    -0.8546    -1.0287 H
33 H33     3.8374    -1.3905     0.6543 H
34 C34    -0.7813    -0.3747     0.0345 C
35 C35     1.6562     0.4316     0.1583 C
36 H36     0.0838     1.0211    -1.2111 H
37 H37     1.5371    -1.0825    -1.3461 H
38 C38     2.5002     1.4127    -0.6686 C
39 H39     2.2060     2.4500    -0.4791 H
40 H40     3.5591     1.3308    -0.4136 H
41 H41    -3.4811     1.3834    -1.1040 H
42 H42     2.3976     1.2204    -1.7425 H
@<TRIPOS>BOND
1 1 4 1
2 1 5 1
3 1 6 1
4 1 34 1
5 2 9 1
6 2 34 1
7 2 35 1
8 2 36 1
9 3 4 1
10 3 30 1
11 3 35 1
12 3 37 1
13 4 7 1
14 4 8 1
15 9 12 1
16 9 13 1
17 9 15 1
18 10 11 1
19 10 22 1
20 10 26 1
21 10 34 1
22 11 12 1
23 11 17 1
24 11 41 1
25 12 14 1
26 12 16 1
27 18 19 1
28 18 20 1
29 18 21 1
30 18 35 1
31 22 23 1
32 22 24 1
33 22 25 1
34 26 27 1
35 26 28 1
36 26 29 1
37 30 31 1
38 30 32 1
39 30 33 1
40 35 38 1
41 38 39 1
42 38 40 1
43 38 42 1
