# title
# Created by GaussView 6.0.16
#

#
#

@<TRIPOS>MOLECULE
Molecule Name
42 43
SMALL
NO_CHARGES


@<TRIPOS>ATOM
1 C1    -0.5567    -1.7408    -0.2116 C
2 C2     0.0639     0.4251     0.4499 C
3 C3     1.9121    -1.2182     0.1830 C
4 C4     0.7627    -2.2093     0.4292 C
5 H5    -1.4041    -1.8515     0.4696 H
6 H6    -0.7818    -2.3197    -1.1087 H
7 H7     1.0368    -3.1909     0.0352 H
8 H8     0.6370    -2.3377     1.5110 H
9 C9    -0.8041     1.1771     1.3669 C
10 C10    -1.7999     0.3534    -1.3072 C
11 C11    -2.7613     0.7226    -0.1654 C
12 C12    -2.1355     1.6988     0.8252 C
13 H13    -0.9829     0.4098     2.1507 H
14 H14    -1.9714     2.6713     0.3520 H
15 H15    -0.2312     1.9430     1.8987 H
16 H16    -2.8085     1.8781     1.6668 H
17 H17    -3.6702     1.1595    -0.5900 H
18 C18     1.8244     0.3025     2.2668 C
19 H19     1.3165    -0.4591     2.8660 H
20 H20     2.8981     0.1798     2.4116 H
21 H21     1.5662     1.2841     2.6683 H
22 C22    -2.4742    -0.6493    -2.2508 C
23 H23    -1.7770    -1.0141    -3.0133 H
24 H24    -2.8844    -1.5109    -1.7161 H
25 H25    -3.3043    -0.1637    -2.7715 H
26 C26    -1.4084     1.6025    -2.1183 C
27 H27    -2.3006     2.1313    -2.4657 H
28 H28    -0.8054     2.3102    -1.5372 H
29 H29    -0.8231     1.3235    -3.0008 H
30 C30     3.2405    -1.7450     0.7213 C
31 H31     3.5340    -2.6324     0.1549 H
32 H32     4.0469    -1.0131     0.6171 H
33 H33     3.1703    -2.0333     1.7738 H
34 C34    -0.4927    -0.2336    -0.7279 C
35 C35     1.4915     0.1703     0.7728 C
36 H36     0.2675    -0.2619    -1.5168 H
37 H37     2.0396    -1.0988    -0.8996 H
38 C38     2.2122     1.3283    -0.0050 C
39 H39     1.9432     2.3109     0.3907 H
40 H40     3.2857     1.1873     0.1426 H
41 H41    -3.0776    -0.1883     0.3596 H
42 H42     2.0061     1.3025    -1.0776 H
@<TRIPOS>BOND
1 1 4 1
2 1 5 1
3 1 6 1
4 1 34 1
5 2 9 1
6 2 34 1
7 2 35 1
8 3 4 1
9 3 30 1
10 3 35 1
11 3 37 1
12 4 7 1
13 4 8 1
14 9 12 1
15 9 13 1
16 9 15 1
17 10 11 1
18 10 22 1
19 10 26 1
20 10 34 1
21 11 12 1
22 11 17 1
23 11 41 1
24 12 14 1
25 12 16 1
26 18 19 1
27 18 20 1
28 18 21 1
29 18 35 1
30 22 23 1
31 22 24 1
32 22 25 1
33 26 27 1
34 26 28 1
35 26 29 1
36 30 31 1
37 30 32 1
38 30 33 1
39 34 36 1
40 35 38 1
41 38 39 1
42 38 40 1
43 38 42 1
