# title
# Created by GaussView 6.0.16
#

#
#

@<TRIPOS>MOLECULE
Molecule Name
42 43
SMALL
NO_CHARGES


@<TRIPOS>ATOM
1 C1    -0.2167    -1.8073     0.0074 C
2 C2     0.1811     0.6906     0.0172 C
3 C3     2.0997    -0.8207    -0.5260 C
4 C4     1.2862    -2.0722    -0.1782 C
5 H5    -0.4946    -1.9220     1.0579 H
6 H6    -0.8014    -2.5466    -0.5398 H
7 H7     1.4455    -2.8092    -0.9697 H
8 H8     1.6925    -2.5198     0.7348 H
9 C9    -0.3304     2.0695     0.1179 C
10 C10    -2.2272    -0.1854    -0.3696 C
11 C11    -2.5495     1.2763    -0.7257 C
12 C12    -1.8410     2.2648     0.1870 C
13 H13     0.2041     2.6074     0.9075 H
14 H14    -2.0732     3.2941    -0.0959 H
15 H15     0.0703     2.5233    -0.8111 H
16 H16    -2.1786     2.1454     1.2207 H
17 H17    -2.2685     1.4690    -1.7707 H
18 C18     1.5944     0.1652     1.8261 C
19 H19     0.8631    -0.5814     2.1410 H
20 H20     2.5861    -0.2006     2.1018 H
21 H21     1.4092     1.0922     2.3725 H
22 C22    -2.7387    -0.5166     1.0440 C
23 H23    -2.7261    -1.5924     1.2345 H
24 H24    -2.1479    -0.0325     1.8304 H
25 H25    -3.7741    -0.1810     1.1534 H
26 C26    -2.9321    -1.0892    -1.3926 C
27 H27    -4.0082    -0.8948    -1.3718 H
28 H28    -2.5808    -0.8930    -2.4116 H
29 H29    -2.7951    -2.1523    -1.1809 H
30 C30     3.5948    -1.1159    -0.3892 C
31 H31     3.8220    -2.0514    -0.9074 H
32 H32     4.2212    -0.3402    -0.8332 H
33 H33     3.8933    -1.2490     0.6557 H
34 C34    -0.6852    -0.4090    -0.4425 C
35 C35     1.6223     0.4282     0.2732 C
36 H36    -0.4067    -0.3155    -1.5248 H
37 H37     1.9194    -0.5767    -1.5834 H
38 C38     2.5371     1.6335     0.0018 C
39 H39     2.2194     2.5420     0.5148 H
40 H40     3.5414     1.4078     0.3622 H
41 H41    -3.6320     1.4233    -0.6673 H
42 H42     2.6043     1.8421    -1.0706 H
@<TRIPOS>BOND
1 1 4 1
2 1 5 1
3 1 6 1
4 1 34 1
5 2 9 1
6 2 34 1
7 2 35 1
8 3 4 1
9 3 30 1
10 3 35 1
11 3 37 1
12 4 7 1
13 4 8 1
14 9 12 1
15 9 13 1
16 9 15 1
17 10 11 1
18 10 22 1
19 10 26 1
20 10 34 1
21 11 12 1
22 11 17 1
23 11 41 1
24 12 14 1
25 12 16 1
26 18 19 1
27 18 20 1
28 18 21 1
29 18 35 1
30 22 23 1
31 22 24 1
32 22 25 1
33 26 27 1
34 26 28 1
35 26 29 1
36 30 31 1
37 30 32 1
38 30 33 1
39 34 36 1
40 35 38 1
41 38 39 1
42 38 40 1
43 38 42 1
