# title
# Created by GaussView 6.0.16
#

#
#

@<TRIPOS>MOLECULE
Molecule Name
42 43
SMALL
NO_CHARGES


@<TRIPOS>ATOM
1 C1     0.1561    -1.7294    -0.9885 C
2 C2     0.4106     0.7123    -0.2235 C
3 C3     1.9506    -1.1152     0.6579 C
4 C4     1.6419    -1.8241    -0.6648 C
5 H5    -0.4064    -2.3252    -0.2655 H
6 H6    -0.0483    -2.1702    -1.9671 H
7 H7     2.2367    -1.3999    -1.4817 H
8 H8     1.9341    -2.8752    -0.5930 H
9 C9    -0.0311     2.1217    -0.3525 C
10 C10    -1.9258    -0.1497    -0.6598 C
11 C11    -2.3541     1.3057    -0.9014 C
12 C12    -1.5448     2.3050    -0.0913 C
13 H13     0.5586     2.8000     0.2609 H
14 H14    -1.8046     3.3319    -0.3573 H
15 H15     0.1540     2.3869    -1.4052 H
16 H16    -1.7395     2.1994     0.9800 H
17 H17    -2.2631     1.5371    -1.9706 H
18 C18     1.6478     1.0936     1.9283 C
19 H19     0.7850     0.8080     2.5340 H
20 H20     2.5502     0.7720     2.4543 H
21 H21     1.6830     2.1812     1.8565 H
22 C22    -2.2113    -0.5577     0.7942 C
23 H23    -2.0088    -1.6166     0.9703 H
24 H24    -1.6298     0.0196     1.5216 H
25 H25    -3.2703    -0.3940     1.0142 H
26 C26    -2.6987    -1.0680    -1.6122 C
27 H27    -3.7720    -0.9367    -1.4453 H
28 H28    -2.4911    -0.8301    -2.6604 H
29 H29    -2.4703    -2.1232    -1.4458 H
30 C30     1.2429    -1.7963     1.8373 C
31 H31     1.3874    -2.8785     1.7792 H
32 H32     1.6449    -1.4671     2.7975 H
33 H33     0.1656    -1.6063     1.8485 H
34 C34    -0.3630    -0.2837    -0.9904 C
35 C35     1.6411     0.4020     0.5422 C
36 H36    -0.3013     0.1126    -2.0201 H
37 H37     3.0287    -1.1893     0.8410 H
38 C38     2.7635     1.0927    -0.3269 C
39 H39     2.6289     2.1731    -0.3924 H
40 H40     3.7092     0.8966     0.1843 H
41 H41    -3.4154     1.4036    -0.6505 H
42 H42     2.8283     0.6815    -1.3357 H
@<TRIPOS>BOND
1 1 4 1
2 1 5 1
3 1 6 1
4 1 34 1
5 2 9 1
6 2 34 1
7 2 35 1
8 3 4 1
9 3 30 1
10 3 35 1
11 3 37 1
12 4 7 1
13 4 8 1
14 9 12 1
15 9 13 1
16 9 15 1
17 10 11 1
18 10 22 1
19 10 26 1
20 10 34 1
21 11 12 1
22 11 17 1
23 11 41 1
24 12 14 1
25 12 16 1
26 18 19 1
27 18 20 1
28 18 21 1
29 18 35 1
30 22 23 1
31 22 24 1
32 22 25 1
33 26 27 1
34 26 28 1
35 26 29 1
36 30 31 1
37 30 32 1
38 30 33 1
39 34 36 1
40 35 38 1
41 38 39 1
42 38 40 1
43 38 42 1
