# title
# Created by GaussView 6.0.16
#

#
#

@<TRIPOS>MOLECULE
Molecule Name
42 43
SMALL
NO_CHARGES


@<TRIPOS>ATOM
1 C1    -0.2388    -1.7128    -0.4431 C
2 C2     0.2296     0.4786     0.3086 C
3 C3     1.8033    -1.2731     1.0022 C
4 C4     1.1897    -2.1232    -0.1149 C
5 H5    -0.9182    -1.8805     0.3989 H
6 H6    -0.6259    -2.2859    -1.2873 H
7 H7     1.7968    -2.0704    -1.0237 H
8 H8     1.2013    -3.1727     0.1956 H
9 C9    -0.7032     1.1211     1.2479 C
10 C10    -1.6344     0.3240    -1.4395 C
11 C11    -2.6289     0.5017    -0.2822 C
12 C12    -2.1106     1.4800     0.7647 C
13 H13    -0.7518     0.3655     2.0597 H
14 H14    -2.0926     2.4941     0.3550 H
15 H15    -0.2050     1.9643     1.7377 H
16 H16    -2.7785     1.5128     1.6287 H
17 H17    -3.5837     0.8596    -0.6796 H
18 C18     2.1140     1.1321     1.8857 C
19 H19     1.4935     1.0030     2.7731 H
20 H20     3.1316     0.8383     2.1556 H
21 H21     2.1404     2.1973     1.6349 H
22 C22    -2.2108    -0.6492    -2.4745 C
23 H23    -1.4677    -0.9165    -3.2340 H
24 H24    -2.5872    -1.5688    -2.0172 H
25 H25    -3.0519    -0.1783    -2.9910 H
26 C26    -1.3548     1.6677    -2.1383 C
27 H27    -2.2904     2.1489    -2.4377 H
28 H28    -0.8079     2.3711    -1.4990 H
29 H29    -0.7550     1.5157    -3.0414 H
30 C30     1.2703    -1.6816     2.3772 C
31 H31     1.4639    -2.7465     2.5294 H
32 H32     1.7645    -1.1493     3.1912 H
33 H33     0.1893    -1.5400     2.4836 H
34 C34    -0.2790    -0.1917    -0.8957 C
35 C35     1.6588     0.3005     0.6786 C
36 H36     0.4652    -0.1338    -1.6964 H
37 H37     2.8897    -1.4198     1.0108 H
38 C38     2.5884     0.6501    -0.5139 C
39 H39     2.3881     1.6589    -0.8864 H
40 H40     3.6202     0.6283    -0.1558 H
41 H41    -2.8344    -0.4724     0.1801 H
42 H42     2.5123    -0.0470    -1.3476 H
@<TRIPOS>BOND
1 1 4 1
2 1 5 1
3 1 6 1
4 1 34 1
5 2 9 1
6 2 34 1
7 2 35 1
8 3 4 1
9 3 30 1
10 3 35 1
11 3 37 1
12 4 7 1
13 4 8 1
14 9 12 1
15 9 13 1
16 9 15 1
17 10 11 1
18 10 22 1
19 10 26 1
20 10 34 1
21 11 12 1
22 11 17 1
23 11 41 1
24 12 14 1
25 12 16 1
26 18 19 1
27 18 20 1
28 18 21 1
29 18 35 1
30 22 23 1
31 22 24 1
32 22 25 1
33 26 27 1
34 26 28 1
35 26 29 1
36 30 31 1
37 30 32 1
38 30 33 1
39 34 36 1
40 35 38 1
41 38 39 1
42 38 40 1
43 38 42 1
