# Title Card Required
# Created by GaussView 5.0.9
#

#
#

@<TRIPOS>MOLECULE
Molecule Name
45 46
SMALL
NO_CHARGES


@<TRIPOS>ATOM
1 C1    -0.4259    -1.9202    -0.1761 C
2 C2     0.1160     0.5211     0.2693 C
3 C3     1.8557    -1.1155    -0.0492 C
4 C4     1.0419    -2.1549    -0.6852 C
5 H5    -0.4924    -2.1983     0.8790 H
6 H6    -1.0489    -2.6241    -0.7298 H
7 H7     1.0365    -2.0359    -1.7723 H
8 H8     1.3712    -3.1620    -0.4234 H
9 C9    -0.2616     1.9575    -0.1234 C
10 C10    -2.3774    -0.2225    -0.1754 C
11 C11    -2.6562     1.2523    -0.5201 C
12 C12    -1.7373     2.2413     0.1800 C
13 H13     0.3639     2.6783     0.4091 H
14 H14    -1.9591     3.2589    -0.1560 H
15 H15    -0.0896     2.1020    -1.1968 H
16 H16    -1.9155     2.2417     1.2601 H
17 H17    -2.5548     1.3817    -1.6058 H
18 C18     0.2388     0.4065     1.7899 C
19 H19    -0.6149     0.8729     2.2787 H
20 H20     0.2940    -0.6213     2.1543 H
21 H21     1.1228     0.9392     2.1482 H
22 C22    -2.8661    -0.5558     1.2406 C
23 H23    -2.6299    -1.5845     1.5266 H
24 H24    -2.4687     0.1053     2.0105 H
25 H25    -3.9551    -0.4629     1.2735 H
26 C26    -3.1812    -1.0893    -1.1590 C
27 H27    -4.2268    -0.7698    -1.1593 H
28 H28    -2.8100    -0.9934    -2.1844 H
29 H29    -3.1754    -2.1480    -0.8866 H
30 C30     2.7447    -1.5011     1.0538 C
31 H31     3.0673    -0.6795     1.6897 H
32 H32     2.3264    -2.3237     1.6409 H
33 H33     3.6436    -1.9202     0.5708 H
34 C34    -0.8482    -0.4801    -0.4165 C
35 C35     1.6253     0.2514    -0.4468 C
36 H36    -0.7285    -0.2937    -1.4947 H
37 H37     1.3646     0.2921    -1.5088 H
38 C38     2.6917     1.2959    -0.1273 C
39 H39     2.2901     2.2775    -0.3833 H
40 H40     2.9123     1.3286     0.9434 H
41 C41     3.9783     1.0759    -0.9231 C
42 H42     4.6909     1.8769    -0.7175 H
43 H43     4.4715     0.1324    -0.6732 H
44 H44     3.7846     1.0777    -1.9993 H
45 H45    -3.7012     1.4776    -0.2824 H
@<TRIPOS>BOND
1 1 4 1
2 1 5 1
3 1 6 1
4 1 34 1
5 2 9 1
6 2 18 1
7 2 34 1
8 2 35 1
9 3 4 1
10 3 30 1
11 3 35 Ar
12 4 7 1
13 4 8 1
14 9 12 1
15 9 13 1
16 9 15 1
17 10 11 1
18 10 22 1
19 10 26 1
20 10 34 1
21 11 12 1
22 11 17 1
23 11 45 1
24 12 14 1
25 12 16 1
26 18 19 1
27 18 20 1
28 18 21 1
29 22 23 1
30 22 24 1
31 22 25 1
32 26 27 1
33 26 28 1
34 26 29 1
35 30 31 1
36 30 32 1
37 30 33 1
38 34 36 1
39 35 37 1
40 35 38 1
41 38 39 1
42 38 40 1
43 38 41 1
44 41 42 1
45 41 43 1
46 41 44 1
