# Title Card Required
# Created by GaussView 5.0.9
#

#
#

@<TRIPOS>MOLECULE
Molecule Name
45 46
SMALL
NO_CHARGES


@<TRIPOS>ATOM
1 C1    -0.4296    -1.9795     0.1802 C
2 C2     0.1390     0.4949     0.3647 C
3 C3     1.9729    -1.1254    -0.3326 C
4 C4     1.0784    -2.2687     0.1966 C
5 H5    -0.8352    -2.1328     1.1823 H
6 H6    -0.9328    -2.7039    -0.4611 H
7 H7     1.3132    -3.1515    -0.4011 H
8 H8     1.4240    -2.4952     1.2103 H
9 C9    -0.2616     1.9308    -0.0474 C
10 C10    -2.3160    -0.2782    -0.3003 C
11 C11    -2.5564     1.1862    -0.7068 C
12 C12    -1.7553     2.1831     0.1163 C
13 H13     0.3095     2.6718     0.5177 H
14 H14    -1.9699     3.2034    -0.2146 H
15 H15    -0.0103     2.0661    -1.1057 H
16 H16    -2.0412     2.1454     1.1729 H
17 H17    -2.2934     1.3120    -1.7659 H
18 C18     0.1634     0.3792     1.9436 C
19 H19     0.6064    -0.5476     2.3138 H
20 H20     0.6829     1.2248     2.3938 H
21 H21    -0.8757     0.3928     2.2699 H
22 C22    -3.0261    -0.5649     1.0330 C
23 H23    -2.8610    -1.5859     1.3841 H
24 H24    -2.7519     0.1191     1.8388 H
25 H25    -4.1042    -0.4526     0.8893 H
26 C26    -2.9722    -1.1719    -1.3663 C
27 H27    -4.0196    -0.8854    -1.4950 H
28 H28    -2.4821    -1.0668    -2.3396 H
29 H29    -2.9634    -2.2293    -1.0905 H
30 C30     3.4516    -1.4941    -0.2563 C
31 H31     3.6032    -2.4653    -0.7304 H
32 H32     4.1050    -0.7822    -0.7608 H
33 H33     3.7772    -1.5872     0.7835 H
34 C34    -0.7761    -0.5677    -0.3066 C
35 C35     1.5700     0.2087     0.1405 C
36 H36    -0.5080    -0.5139    -1.3737 H
37 H37     1.6902    -0.9991    -1.4047 H
38 C38     2.5998     1.2457     0.3530 C
39 H39     2.2286     2.0560     0.9795 H
40 H40     3.4750     0.7996     0.8324 H
41 C41     3.0447     1.8496    -1.0105 C
42 H42     2.2287     2.3836    -1.4962 H
43 H43     3.8460     2.5619    -0.8094 H
44 H44     3.4266     1.0921    -1.6952 H
45 H45    -3.6268     1.4027    -0.6313 H
@<TRIPOS>BOND
1 1 4 1
2 1 5 1
3 1 6 1
4 1 34 1
5 2 9 1
6 2 18 1
7 2 34 1
8 2 35 1
9 3 4 1
10 3 30 1
11 3 35 1
12 3 37 1
13 4 7 1
14 4 8 1
15 9 12 1
16 9 13 1
17 9 15 1
18 10 11 1
19 10 22 1
20 10 26 1
21 10 34 1
22 11 12 1
23 11 17 1
24 11 45 1
25 12 14 1
26 12 16 1
27 18 19 1
28 18 20 1
29 18 21 1
30 22 23 1
31 22 24 1
32 22 25 1
33 26 27 1
34 26 28 1
35 26 29 1
36 30 31 1
37 30 32 1
38 30 33 1
39 34 36 1
40 35 38 1
41 38 39 1
42 38 40 1
43 38 41 1
44 41 42 1
45 41 43 1
46 41 44 1
