# Title Card Required
# Created by GaussView 5.0.9
#

#
#

@<TRIPOS>MOLECULE
Molecule Name
45 46
SMALL
NO_CHARGES


@<TRIPOS>ATOM
1 C1    -0.3742    -1.9849    -0.3061 C
2 C2     0.0385     0.5395     0.1072 C
3 C3     1.9740    -1.0261    -0.3146 C
4 C4     1.0845    -2.1951     0.0913 C
5 H5    -1.0240    -2.5117     0.3947 H
6 H6    -0.5616    -2.4398    -1.2812 H
7 H7     1.4556    -3.1103    -0.3766 H
8 H8     1.1721    -2.3605     1.1700 H
9 C9    -0.4806     1.9212     0.2454 C
10 C10    -2.3844    -0.3268    -0.1862 C
11 C11    -2.7547     1.1369    -0.4645 C
12 C12    -1.9839     2.1068     0.4133 C
13 H13     0.0901     2.4535     1.0108 H
14 H14    -2.2361     3.1400     0.1634 H
15 H15    -0.1477     2.3987    -0.6944 H
16 H16    -2.2548     1.9750     1.4643 H
17 H17    -2.5693     1.3641    -1.5231 H
18 C18     1.4284     0.1611     1.9168 C
19 H19     0.6217    -0.4739     2.2893 H
20 H20     2.3728    -0.2922     2.2257 H
21 H21     1.3460     1.1413     2.3867 H
22 C22    -2.7796    -0.7107     1.2484 C
23 H23    -2.6586    -1.7792     1.4372 H
24 H24    -2.2027    -0.1722     2.0057 H
25 H25    -3.8352    -0.4781     1.4110 H
26 C26    -3.1433    -1.2164    -1.1777 C
27 H27    -4.2177    -1.0451    -1.0735 H
28 H28    -2.8731    -0.9887    -2.2140 H
29 H29    -2.9684    -2.2801    -1.0044 H
30 C30     3.4427    -1.3469    -0.0421 C
31 H31     3.7085    -2.2697    -0.5628 H
32 H32     4.1234    -0.5717    -0.3973 H
33 H33     3.6422    -1.5151     1.0199 H
34 C34    -0.8472    -0.5191    -0.3845 C
35 C35     1.4828     0.2922     0.3450 C
36 H36    -0.6472    -0.1906    -1.4463 H
37 H37     1.8664    -0.8848    -1.3993 H
38 C38     2.4037     1.4862    -0.0014 C
39 H39     2.0454     2.3929     0.4918 H
40 H40     3.3718     1.2806     0.4625 H
41 C41     2.5990     1.7552    -1.4911 C
42 H42     1.6548     1.9213    -2.0206 H
43 H43     3.2031     2.6544    -1.6280 H
44 H44     3.1182     0.9377    -1.9952 H
45 H45    -3.8300     1.2653    -0.3109 H
@<TRIPOS>BOND
1 1 4 1
2 1 5 1
3 1 6 1
4 1 34 1
5 2 9 1
6 2 34 1
7 2 35 1
8 3 4 1
9 3 30 1
10 3 35 1
11 3 37 1
12 4 7 1
13 4 8 1
14 9 12 1
15 9 13 1
16 9 15 1
17 10 11 1
18 10 22 1
19 10 26 1
20 10 34 1
21 11 12 1
22 11 17 1
23 11 45 1
24 12 14 1
25 12 16 1
26 18 19 1
27 18 20 1
28 18 21 1
29 18 35 1
30 22 23 1
31 22 24 1
32 22 25 1
33 26 27 1
34 26 28 1
35 26 29 1
36 30 31 1
37 30 32 1
38 30 33 1
39 34 36 1
40 35 38 1
41 38 39 1
42 38 40 1
43 38 41 1
44 41 42 1
45 41 43 1
46 41 44 1
