# Title Card Required
# Created by GaussView 5.0.9
#

#
#

@<TRIPOS>MOLECULE
Molecule Name
45 46
SMALL
NO_CHARGES


@<TRIPOS>ATOM
1 C1    -0.3721    -1.9204    -0.3762 C
2 C2     0.0228     0.5762    -0.1061 C
3 C3     1.9888    -1.0213    -0.3019 C
4 C4     1.0690    -2.1915     0.0308 C
5 H5    -1.0734    -2.6456     0.0473 H
6 H6    -0.4907    -2.0674    -1.4663 H
7 H7     1.4091    -3.0923    -0.4868 H
8 H8     1.1158    -2.4236     1.0992 H
9 C9    -0.5222     1.9669     0.2852 C
10 C10    -2.3698    -0.3550    -0.1933 C
11 C11    -2.7523     1.0978    -0.5119 C
12 C12    -2.0436     2.0980     0.3824 C
13 H13    -0.0751     2.2469     1.2401 H
14 H14    -2.3395     3.1139     0.1116 H
15 H15    -0.1339     2.6835    -0.4423 H
16 H16    -2.3707     1.9604     1.4168 H
17 H17    -2.5236     1.2976    -1.5664 H
18 C18     1.4786     0.1601     1.9057 C
19 H19     0.7784    -0.5997     2.2644 H
20 H20     2.4721    -0.1043     2.2728 H
21 H21     1.2131     1.1044     2.3856 H
22 C22    -2.7467    -0.7107     1.2890 C
23 H23    -2.6551    -1.7811     1.4769 H
24 H24    -2.1581    -0.1728     2.0340 H
25 H25    -3.7940    -0.4251     1.4187 H
26 C26    -3.1236    -1.3050    -1.1363 C
27 H27    -4.1933    -1.1057    -1.0439 H
28 H28    -2.8447    -1.1291    -2.1789 H
29 H29    -2.9717    -2.3603    -0.9076 H
30 C30     3.4388    -1.3881     0.0125 C
31 H31     3.7156    -2.2930    -0.5344 H
32 H32     4.1406    -0.6072    -0.2843 H
33 H33     3.5902    -1.5949     1.0749 H
34 C34    -0.8972    -0.5535    -0.1755 C
35 C35     1.4885     0.2852     0.3734 C
36 H36     0.0888     0.5800    -1.2357 H
37 H37     1.9265    -0.8603    -1.3885 H
38 C38     2.3940     1.4777    -0.0080 C
39 H39     2.0219     2.3786     0.4884 H
40 H40     3.3747     1.2982     0.4420 H
41 C41     2.5706     1.7597    -1.4964 C
42 H42     1.6182     1.9395    -2.0095 H
43 H43     3.1715     2.6607    -1.6370 H
44 H44     3.0821     0.9490    -2.0207 H
45 H45    -3.8370     1.1920    -0.4104 H
@<TRIPOS>BOND
1 1 4 1
2 1 5 1
3 1 6 1
4 1 34 1
5 2 9 1
6 2 34 1
7 2 35 1
8 2 36 1
9 3 4 1
10 3 30 1
11 3 35 1
12 3 37 1
13 4 7 1
14 4 8 1
15 9 12 1
16 9 13 1
17 9 15 1
18 10 11 1
19 10 22 1
20 10 26 1
21 10 34 1
22 11 12 1
23 11 17 1
24 11 45 1
25 12 14 1
26 12 16 1
27 18 19 1
28 18 20 1
29 18 21 1
30 18 35 1
31 22 23 1
32 22 24 1
33 22 25 1
34 26 27 1
35 26 28 1
36 26 29 1
37 30 31 1
38 30 32 1
39 30 33 1
40 35 38 1
41 38 39 1
42 38 40 1
43 38 41 1
44 41 42 1
45 41 43 1
46 41 44 1
