# Title Card Required
# Created by GaussView 6.0.16
#

#
#

@<TRIPOS>MOLECULE
Molecule Name
45 45
SMALL
NO_CHARGES


@<TRIPOS>ATOM
1 C1     0.4270     1.9639     0.2795 C
2 C2    -0.1262    -0.5030     0.4146 C
3 C3    -1.9785     1.1692    -0.1153 C
4 C4    -1.0008     2.3245    -0.1073 C
5 H5     0.5430     2.0021     1.3657 H
6 H6     1.0996     2.7203    -0.1283 H
7 H7    -1.0361     2.7925    -1.0968 H
8 H8    -1.4229     3.0629     0.5827 H
9 C9     0.2157    -1.8844    -0.1831 C
10 C10     2.3201     0.2762    -0.2645 C
11 C11     2.5397    -1.1532    -0.7923 C
12 C12     1.7034    -2.2036    -0.0760 C
13 H13    -0.3664    -2.6697     0.3063 H
14 H14     1.8839    -3.1880    -0.5202 H
15 H15    -0.0637    -1.8874    -1.2435 H
16 H16     2.0041    -2.2835     0.9745 H
17 H17     2.2864    -1.1739    -1.8613 H
18 C18    -0.0455    -0.5621     1.9635 C
19 H19    -0.3069     0.3874     2.4344 H
20 H20    -0.7164    -1.3291     2.3583 H
21 H21     0.9635    -0.8263     2.2738 H
22 C22     3.0260     0.4554     1.0877 C
23 H23     2.7794     1.4134     1.5543 H
24 H24     2.7968    -0.3367     1.8029 H
25 H25     4.1098     0.4395     0.9320 H
26 C26     2.9867     1.2404    -1.2601 C
27 H27     4.0220     0.9310    -1.4371 H
28 H28     2.4693     1.2412    -2.2258 H
29 H29     3.0173     2.2691    -0.8903 H
30 C30    -3.4253     1.5893    -0.1753 C
31 H31    -3.5284     2.4617    -0.8231 H
32 H32    -4.1023     0.8134    -0.5261 H
33 H33    -3.7315     1.8851     0.8331 H
34 C34     0.7889     0.5758    -0.2432 C
35 C35    -1.5908    -0.1537     0.1969 C
36 H36     0.5084     0.5516    -1.3098 H
37 H37    -1.7267     0.4642    -1.0956 H
38 C38    -2.6468    -1.2201     0.3432 C
39 H39    -2.2393    -2.0152     0.9686 H
40 H40    -3.5000    -0.7986     0.8796 H
41 C41    -3.1244    -1.8361    -0.9798 C
42 H42    -2.3138    -2.3470    -1.5023 H
43 H43    -3.9045    -2.5699    -0.7663 H
44 H44    -3.5457    -1.0836    -1.6514 H
45 H45     3.6060    -1.3977    -0.7205 H
@<TRIPOS>BOND
1 1 4 1
2 1 5 1
3 1 6 1
4 1 34 1
5 2 9 1
6 2 18 1
7 2 34 1
8 2 35 1
9 3 4 1
10 3 30 1
11 3 35 Ar
12 4 7 1
13 4 8 1
14 9 12 1
15 9 13 1
16 9 15 1
17 10 11 1
18 10 22 1
19 10 26 1
20 10 34 1
21 11 12 1
22 11 17 1
23 11 45 1
24 12 14 1
25 12 16 1
26 18 19 1
27 18 20 1
28 18 21 1
29 22 23 1
30 22 24 1
31 22 25 1
32 26 27 1
33 26 28 1
34 26 29 1
35 30 31 1
36 30 32 1
37 30 33 1
38 34 36 1
39 35 38 1
40 38 39 1
41 38 40 1
42 38 41 1
43 41 42 1
44 41 43 1
45 41 44 1
