# Title Card Required
# Created by GaussView 6.0.16
#

#
#

@<TRIPOS>MOLECULE
Molecule Name
45 45
SMALL
NO_CHARGES


@<TRIPOS>ATOM
1 C1    -0.3801    -1.9267    -0.6108 C
2 C2     0.1238     0.5556     0.0135 C
3 C3     2.0094    -1.1326    -0.2387 C
4 C4     0.9608    -2.2001     0.0587 C
5 H5    -1.1326    -2.5720    -0.1542 H
6 H6    -0.3198    -2.2449    -1.6550 H
7 H7     1.3412    -3.1662    -0.2822 H
8 H8     0.8480    -2.3012     1.1444 H
9 C9    -0.3783     1.9862    -0.0867 C
10 C10    -2.3504    -0.2831    -0.1487 C
11 C11    -2.7528     1.1954    -0.2929 C
12 C12    -1.8089     2.1575     0.4132 C
13 H13     0.2902     2.6885     0.4104 H
14 H14    -2.1197     3.1899     0.2328 H
15 H15    -0.3417     2.2327    -1.1561 H
16 H16    -1.8477     2.0192     1.4997 H
17 H17    -2.7861     1.4512    -1.3601 H
18 C18     0.6246     0.2656     1.6988 C
19 H19    -0.2210    -0.3660     1.9566 H
20 H20     1.5098    -0.2710     2.0554 H
21 H21     0.5936     1.2466     2.1614 H
22 C22    -2.6332    -0.7639     1.2830 C
23 H23    -2.2312    -1.7627     1.4785 H
24 H24    -2.2543    -0.0839     2.0507 H
25 H25    -3.7134    -0.8271     1.4380 H
26 C26    -3.2218    -1.1006    -1.1143 C
27 H27    -4.2781    -0.8940    -0.9229 H
28 H28    -3.0184    -0.8387    -2.1576 H
29 H29    -3.0798    -2.1779    -1.0019 H
30 C30     3.3590    -1.4946     0.3820 C
31 H31     3.6195    -2.5170     0.1016 H
32 H32     4.1735    -0.8516     0.0454 H
33 H33     3.3285    -1.4636     1.4768 H
34 C34    -0.8568    -0.4560    -0.5802 C
35 C35     1.5094     0.2639     0.1030 C
36 H36    -0.8473    -0.1041    -1.6247 H
37 H37     2.1391    -1.0866    -1.3316 H
38 C38     2.5506     1.3591     0.1673 C
39 H39     2.1477     2.2631     0.6235 H
40 H40     3.3786     1.0339     0.8001 H
41 C41     3.0710     1.6926    -1.2372 C
42 H42     2.2682     2.0244    -1.8997 H
43 H43     3.7989     2.5026    -1.1672 H
44 H44     3.5699     0.8413    -1.7045 H
45 H45    -3.7729     1.3245     0.0827 H
@<TRIPOS>BOND
1 1 4 1
2 1 5 1
3 1 6 1
4 1 34 1
5 2 9 1
6 2 34 1
7 2 35 Ar
8 3 4 1
9 3 30 1
10 3 35 1
11 3 37 1
12 4 7 1
13 4 8 1
14 9 12 1
15 9 13 1
16 9 15 1
17 10 11 1
18 10 22 1
19 10 26 1
20 10 34 1
21 11 12 1
22 11 17 1
23 11 45 1
24 12 14 1
25 12 16 1
26 18 19 1
27 18 20 1
28 18 21 1
29 22 23 1
30 22 24 1
31 22 25 1
32 26 27 1
33 26 28 1
34 26 29 1
35 30 31 1
36 30 32 1
37 30 33 1
38 34 36 1
39 35 38 1
40 38 39 1
41 38 40 1
42 38 41 1
43 41 42 1
44 41 43 1
45 41 44 1
