# Title Card Required
# Created by GaussView 6.0.16
#

#
#

@<TRIPOS>MOLECULE
Molecule Name
45 45
SMALL
NO_CHARGES


@<TRIPOS>ATOM
1 C1     0.3141    -1.9534     0.2670 C
2 C2    -0.0214     0.5329    -0.1827 C
3 C3    -2.0078    -1.0080     0.2443 C
4 C4    -1.1111    -2.1515    -0.2172 C
5 H5     1.0063    -2.6192    -0.2548 H
6 H6     0.4054    -2.2256     1.3250 H
7 H7    -1.4885    -3.1007     0.1719 H
8 H8    -1.1341    -2.2400    -1.3080 H
9 C9     0.5319     1.9251    -0.4240 C
10 C10     2.3662    -0.3755     0.1984 C
11 C11     2.7490     1.1037     0.3548 C
12 C12     2.0359     1.9953    -0.6452 C
13 H13    -0.0053     2.3359    -1.2811 H
14 H14     2.3643     3.0317    -0.5397 H
15 H15     0.2436     2.5569     0.4235 H
16 H16     2.2817     1.6983    -1.6689 H
17 H17     2.5119     1.4335     1.3757 H
18 C18    -1.7941     0.3968    -1.8828 C
19 H19    -1.2576    -0.3810    -2.4301 H
20 H20    -2.8610     0.2660    -2.0696 H
21 H21    -1.5159     1.3616    -2.3107 H
22 C22     2.9590    -0.9444    -1.1120 C
23 H23     2.8081    -2.0218    -1.1997 H
24 H24     2.5463    -0.4708    -2.0050 H
25 H25     4.0372    -0.7676    -1.1058 H
26 C26     2.9339    -1.1622     1.3901 C
27 H27     4.0100    -0.9833     1.4493 H
28 H28     2.4953    -0.8348     2.3379 H
29 H29     2.7901    -2.2397     1.2945 H
30 C30    -3.4777    -1.3352    -0.0158 C
31 H31    -3.7545    -2.2297     0.5473 H
32 H32    -4.1527    -0.5374     0.2992 H
33 H33    -3.6691    -1.5475    -1.0707 H
34 C34     0.8496    -0.5522     0.0997 C
35 C35    -1.5390     0.3447    -0.3597 C
36 H36     0.2762     0.2080     1.0357 H
37 H37    -1.8843    -0.9260     1.3342 H
38 C38    -2.2959     1.5287     0.2943 C
39 H39    -1.9795     2.4614    -0.1810 H
40 H40    -3.3500     1.4244     0.0249 H
41 C41    -2.1767     1.6600     1.8097 C
42 H42    -1.1356     1.7044     2.1535 H
43 H43    -2.6523     2.5847     2.1432 H
44 H44    -2.6654     0.8405     2.3409 H
45 H45     3.8342     1.1897     0.2536 H
@<TRIPOS>BOND
1 1 4 1
2 1 5 1
3 1 6 1
4 1 34 1
5 2 9 1
6 2 34 Ar
7 2 35 1
8 3 4 1
9 3 30 1
10 3 35 1
11 3 37 1
12 4 7 1
13 4 8 1
14 9 12 1
15 9 13 1
16 9 15 1
17 10 11 1
18 10 22 1
19 10 26 1
20 10 34 1
21 11 12 1
22 11 17 1
23 11 45 1
24 12 14 1
25 12 16 1
26 18 19 1
27 18 20 1
28 18 21 1
29 18 35 1
30 22 23 1
31 22 24 1
32 22 25 1
33 26 27 1
34 26 28 1
35 26 29 1
36 30 31 1
37 30 32 1
38 30 33 1
39 35 38 1
40 38 39 1
41 38 40 1
42 38 41 1
43 41 42 1
44 41 43 1
45 41 44 1
