# title
# Created by GaussView 6.0.16
#

#
#

@<TRIPOS>MOLECULE
Molecule Name
42 43
SMALL
NO_CHARGES


@<TRIPOS>ATOM
1 C1    -0.0440    -0.0878     1.8474 C
2 C2     0.4070     0.1084    -0.6638 C
3 C3     2.3273     0.3863     1.0606 C
4 C4     1.4429    -0.2798     2.1238 C
5 H5    -0.3252     0.9657     1.9569 H
6 H6    -0.6110    -0.6285     2.6072 H
7 H7     1.6652    -1.3523     2.1491 H
8 H8     1.7166     0.1189     3.1045 H
9 C9     0.1423    -0.5472    -2.0378 C
10 C10    -1.9204    -0.7882     0.1744 C
11 C11    -2.0844    -1.4244    -1.2208 C
12 C12    -1.3527    -0.6792    -2.3316 C
13 H13     0.6180     0.0198    -2.8432 H
14 H14    -1.4716    -1.2095    -3.2807 H
15 H15     0.5934    -1.5480    -2.0354 H
16 H16    -1.8014     0.3086    -2.4881 H
17 H17    -1.7096    -2.4566    -1.1795 H
18 C18     0.1234     1.6771    -0.7615 C
19 H19    -0.2603     2.0669     0.1788 H
20 H20     0.9942     2.2749    -1.0505 H
21 H21    -0.6191     1.8136    -1.5477 H
22 C22    -2.7151     0.5253     0.2705 C
23 H23    -2.5644     1.0194     1.2356 H
24 H24    -2.4732     1.2417    -0.5169 H
25 H25    -3.7841     0.3089     0.1856 H
26 C26    -2.5134    -1.7707     1.2009 C
27 H27    -3.5218    -2.0612     0.8911 H
28 H28    -1.9158    -2.6856     1.2794 H
29 H29    -2.6021    -1.3293     2.1974 H
30 C30     2.5598     1.9013     1.3607 C
31 H31     3.1391     1.9649     2.2830 H
32 H32     3.1173     2.4095     0.5704 H
33 H33     1.6100     2.4156     1.5123 H
34 C34    -0.3971    -0.6256     0.4594 C
35 C35     1.8327     0.2474    -0.3319 C
36 H36    -0.0064    -1.6558     0.4236 H
37 H37     3.3296    -0.0627     1.0621 H
38 C38     2.8576     0.2737    -1.3906 C
39 H39     2.5196     0.7145    -2.3284 H
40 H40     3.7985     0.7155    -1.0603 H
41 H41    -3.1510    -1.4934    -1.4590 H
42 H42     3.0494    -0.7921    -1.6067 H
@<TRIPOS>BOND
1 1 4 1
2 1 5 1
3 1 6 1
4 1 34 1
5 2 9 1
6 2 18 1
7 2 34 1
8 2 35 1
9 3 4 1
10 3 30 1
11 3 35 1
12 3 37 1
13 4 7 1
14 4 8 1
15 9 12 1
16 9 13 1
17 9 15 1
18 10 11 1
19 10 22 1
20 10 26 1
21 10 34 1
22 11 12 1
23 11 17 1
24 11 41 1
25 12 14 1
26 12 16 1
27 18 19 1
28 18 20 1
29 18 21 1
30 22 23 1
31 22 24 1
32 22 25 1
33 26 27 1
34 26 28 1
35 26 29 1
36 30 31 1
37 30 32 1
38 30 33 1
39 34 36 1
40 35 38 1
41 38 39 1
42 38 40 1
43 38 42 1
