# title
# Created by GaussView 6.0.16
#

#
#

@<TRIPOS>MOLECULE
Molecule Name
42 43
SMALL
NO_CHARGES


@<TRIPOS>ATOM
1 C1    -0.1952     0.0728     1.8460 C
2 C2     0.3478     0.3128    -0.6307 C
3 C3     2.1745    -0.4922     0.9486 C
4 C4     1.3223     0.1003     2.1048 C
5 H5    -0.6120     1.0652     2.0344 H
6 H6    -0.6730    -0.6000     2.5597 H
7 H7     1.5774    -0.4671     3.0021 H
8 H8     1.6807     1.1202     2.2781 H
9 C9    -0.0149    -0.1477    -2.0709 C
10 C10    -2.0928    -0.3944     0.1334 C
11 C11    -2.3125    -0.8561    -1.3207 C
12 C12    -1.5150    -0.0516    -2.3406 C
13 H13     0.5309     0.4383    -2.8145 H
14 H14    -1.7045    -0.4321    -3.3485 H
15 H15     0.2961    -1.1941    -2.1883 H
16 H16    -1.8319     0.9973    -2.3491 H
17 H17    -2.0317    -1.9152    -1.4069 H
18 C18     0.3134     1.8879    -0.5381 C
19 H19     0.7150     2.2750     0.4016 H
20 H20     0.8523     2.3460    -1.3687 H
21 H21    -0.7297     2.1926    -0.5942 H
22 C22    -2.8163     0.9448     0.3668 C
23 H23    -2.6136     1.3652     1.3553 H
24 H24    -2.5856     1.7069    -0.3808 H
25 H25    -3.8957     0.7763     0.3093 H
26 C26    -2.7461    -1.4342     1.0636 C
27 H27    -3.7810    -1.6086     0.7545 H
28 H28    -2.2242    -2.3969     1.0248 H
29 H29    -2.7756    -1.0994     2.1044 H
30 C30     3.6631    -0.5375     1.2793 C
31 H31     3.8057    -1.0717     2.2206 H
32 H32     4.2506    -1.0551     0.5175 H
33 H33     4.0720     0.4693     1.4117 H
34 C34    -0.5548    -0.3851     0.4234 C
35 C35     1.7800     0.0830    -0.3449 C
36 H36    -0.2834    -1.4503     0.3485 H
37 H37     1.8068    -1.5334     0.8138 H
38 C38     2.8175     0.4125    -1.3333 C
39 H39     2.4559     0.9157    -2.2258 H
40 H40     3.6261     0.9823    -0.8628 H
41 H41    -3.3814    -0.8012    -1.5525 H
42 H42     3.2826    -0.5407    -1.6310 H
@<TRIPOS>BOND
1 1 4 1
2 1 5 1
3 1 6 1
4 1 34 1
5 2 9 1
6 2 18 1
7 2 34 1
8 2 35 1
9 3 4 1
10 3 30 1
11 3 35 1
12 3 37 1
13 4 7 1
14 4 8 1
15 9 12 1
16 9 13 1
17 9 15 1
18 10 11 1
19 10 22 1
20 10 26 1
21 10 34 1
22 11 12 1
23 11 17 1
24 11 41 1
25 12 14 1
26 12 16 1
27 18 19 1
28 18 20 1
29 18 21 1
30 22 23 1
31 22 24 1
32 22 25 1
33 26 27 1
34 26 28 1
35 26 29 1
36 30 31 1
37 30 32 1
38 30 33 1
39 34 36 1
40 35 38 1
41 38 39 1
42 38 40 1
43 38 42 1
