# title
# Created by GaussView 6.0.16
#

#
#

@<TRIPOS>MOLECULE
Molecule Name
42 42
SMALL
NO_CHARGES


@<TRIPOS>ATOM
1 C1    -0.2974    -0.1297    -1.8612 C
2 C2     0.1417     0.4252     0.5841 C
3 C3    -0.1636     2.1547    -1.0606 C
4 C4    -0.7975     1.3440    -2.1035 C
5 H5     0.7568    -0.2053    -2.1411 H
6 H6    -0.8591    -0.7505    -2.5606 H
7 H7    -1.8849     1.3417    -1.9823 H
8 H8    -0.5327     1.6718    -3.1102 H
9 C9    -0.2454     0.0530     2.0262 C
10 C10    -0.2928    -2.0715    -0.1484 C
11 C11    -0.6398    -2.3470     1.3298 C
12 C12     0.0572    -1.4214     2.3216 C
13 H13     0.2880     0.6909     2.7372 H
14 H14    -0.2842    -1.6424     3.3373 H
15 H15    -1.3195     0.2262     2.1711 H
16 H16     1.1378    -1.6000     2.3254 H
17 H17    -1.7264    -2.2440     1.4569 H
18 C18     1.6674     0.5348     0.4601 C
19 H19     2.1514    -0.3168     0.9345 H
20 H20     2.0252     0.5729    -0.5722 H
21 H21     2.0403     1.4218     0.9785 H
22 C22     1.1308    -2.5524    -0.4745 C
23 H23     1.4237    -2.3034    -1.4993 H
24 H24     1.8918    -2.1570     0.1989 H
25 H25     1.1676    -3.6426    -0.3898 H
26 C26    -1.2682    -2.8880    -1.0170 C
27 H27    -1.2670    -3.9321    -0.6903 H
28 H28    -2.2957    -2.5173    -0.9300 H
29 H29    -0.9873    -2.8860    -2.0745 H
30 C30     0.9223     3.0749    -1.4175 C
31 H31     1.6206     3.2742    -0.6046 H
32 H32     1.4373     2.7801    -2.3345 H
33 H33     0.4130     4.0309    -1.6367 H
34 C34    -0.5412    -0.5482    -0.4155 C
35 C35    -0.5586     1.9155     0.3096 C
36 H36    -1.6205    -0.4288    -0.2343 H
37 H37    -1.6258     1.6787     0.3487 H
38 C38    -0.2181     2.9860     1.3417 C
39 H39    -0.6973     2.7487     2.2920 H
40 H40     0.8530     3.0918     1.5258 H
41 H41    -0.4008    -3.3911     1.5593 H
42 H42    -0.6023     3.9578     1.0197 H
@<TRIPOS>BOND
1 1 4 1
2 1 5 1
3 1 6 1
4 1 34 1
5 2 9 1
6 2 18 1
7 2 34 1
8 3 4 1
9 3 30 1
10 3 35 Ar
11 4 7 1
12 4 8 1
13 9 12 1
14 9 13 1
15 9 15 1
16 10 11 1
17 10 22 1
18 10 26 1
19 10 34 1
20 11 12 1
21 11 17 1
22 11 41 1
23 12 14 1
24 12 16 1
25 18 19 1
26 18 20 1
27 18 21 1
28 22 23 1
29 22 24 1
30 22 25 1
31 26 27 1
32 26 28 1
33 26 29 1
34 30 31 1
35 30 32 1
36 30 33 1
37 34 36 1
38 35 37 1
39 35 38 1
40 38 39 1
41 38 40 1
42 38 42 1
