# title
# Created by GaussView 6.0.16
#

#
#

@<TRIPOS>MOLECULE
Molecule Name
42 43
SMALL
NO_CHARGES


@<TRIPOS>ATOM
1 C1     0.0808    -0.1409    -1.8203 C
2 C2     0.3989     0.3556     0.6538 C
3 C3    -0.3061     2.2057    -0.9734 C
4 C4     0.2348     1.3885    -2.0528 C
5 H5     1.0295    -0.6261    -2.0548 H
6 H6    -0.6498    -0.4990    -2.5480 H
7 H7    -0.1130     1.7178    -3.0343 H
8 H8     1.3112     1.6491    -2.0056 H
9 C9    -0.0522    -0.0353     2.0772 C
10 C10    -0.4871    -2.0315    -0.1557 C
11 C11    -0.8953    -2.2662     1.3135 C
12 C12    -0.0092    -1.5422     2.3235 C
13 H13     0.5582     0.4924     2.8193 H
14 H14    -0.3609    -1.7475     3.3386 H
15 H15    -1.0902     0.2953     2.2268 H
16 H16     1.0203    -1.9144     2.2789 H
17 H17    -1.9316    -1.9261     1.4516 H
18 C18     1.9273     0.2112     0.5417 C
19 H19     2.2313    -0.8246     0.6756 H
20 H20     2.3320     0.5351    -0.4220 H
21 H21     2.4308     0.7901     1.3197 H
22 C22     0.7915    -2.8294    -0.4719 C
23 H23     1.1388    -2.6758    -1.4977 H
24 H24     1.6211    -2.6108     0.2020 H
25 H25     0.5758    -3.8970    -0.3692 H
26 C26    -1.6072    -2.5901    -1.0535 C
27 H27    -1.8078    -3.6336    -0.7930 H
28 H28    -2.5432    -2.0344    -0.9260 H
29 H29    -1.3380    -2.5738    -2.1144 H
30 C30    -1.0913     3.4021    -1.2988 C
31 H31    -0.6110     3.9800    -2.0971 H
32 H32    -2.0257     3.0261    -1.7477 H
33 H33    -1.3369     4.0307    -0.4441 H
34 C34    -0.3809    -0.4907    -0.4002 C
35 C35    -0.0502     1.8327     0.4205 C
36 H36    -1.4255    -0.1401    -0.3102 H
37 H37    -1.0077     2.0031     0.9410 H
38 C38     0.9104     2.9236     1.0029 C
39 H39     1.1035     2.6666     2.0456 H
40 H40     1.8622     2.9508     0.4693 H
41 H41    -0.8970    -3.3437     1.5103 H
42 H42     0.4597     3.9165     0.9791 H
@<TRIPOS>BOND
1 1 4 1
2 1 5 1
3 1 6 1
4 1 34 1
5 2 9 1
6 2 18 1
7 2 34 1
8 2 35 1
9 3 4 1
10 3 30 1
11 3 35 1
12 4 7 1
13 4 8 1
14 9 12 1
15 9 13 1
16 9 15 1
17 10 11 1
18 10 22 1
19 10 26 1
20 10 34 1
21 11 12 1
22 11 17 1
23 11 41 1
24 12 14 1
25 12 16 1
26 18 19 1
27 18 20 1
28 18 21 1
29 22 23 1
30 22 24 1
31 22 25 1
32 26 27 1
33 26 28 1
34 26 29 1
35 30 31 1
36 30 32 1
37 30 33 1
38 34 36 1
39 35 37 1
40 35 38 1
41 38 39 1
42 38 40 1
43 38 42 1
